<?xml version="1.0" encoding="utf-8"?>
<configuration xmlns:xsi="http://www.w3.org/2001/XMLSchema-instance"
 xsi:noNamespaceSchemaLocation="http://sumo.sf.net/xsd/sumoConfiguration.xsd">
    <input>
        <net-file value="nyc_edit.net.xml"/>
        <route-files value="nyc_routes.rou.xml"/>
    </input>
    <time>
        <begin value="0"/>
        <end value="7200"/>
    </time>
    <time-to-teleport value="100"/>
    <waiting-time-memory value="1000000"/>
</configuration>