<?xml version='1.0' encoding='utf-8'?>
<routes><vType color="yellow" id="type1" length="5" maxSpeed="11.0" /><vType color="blue" id="type2" length="10" maxSpeed="9.0" /><flow begin="0" end="7200" from="198595461#0" id="42436527-593915305_vt1" to="273019810#2" type="type1" vehsPerHour="360.0" /><flow begin="0" end="7200" from="198595461#0" id="42436527-593915305_vt2" to="273019810#2" type="type2" vehsPerHour="100.0" /><flow begin="0" end="7200" from="46522160#2" id="42429980-593915305_vt1" to="273019810#2" type="type1" vehsPerHour="360.0" /><flow begin="0" end="7200" from="46522160#2" id="42429980-593915305_vt2" to="273019810#2" type="type2" vehsPerHour="100.0" /><flow begin="0" end="7200" from="5672629" id="42424098-593915305_vt1" to="273019810#2" type="type1" vehsPerHour="360.0" /><flow begin="0" end="7200" from="5672629" id="42424098-593915305_vt2" to="273019810#2" type="type2" vehsPerHour="100.0" /><flow begin="0" end="7200" from="198595461#0" id="42436527-593915274_vt1" to="273019814#1" type="type1" vehsPerHour="360.0" /><flow begin="0" end="7200" from="198595461#0" id="42436527-593915274_vt2" to="273019814#1" type="type2" vehsPerHour="100.0" /><flow begin="0" end="7200" from="46522160#2" id="42429980-593915274_vt1" to="273019814#1" type="type1" vehsPerHour="360.0" /><flow begin="0" end="7200" from="46522160#2" id="42429980-593915274_vt2" to="273019814#1" type="type2" vehsPerHour="100.0" /><flow begin="0" end="7200" from="5672629" id="42424098-593915274_vt1" to="273019814#1" type="type1" vehsPerHour="360.0" /><flow begin="0" end="7200" from="5672629" id="42424098-593915274_vt2" to="273019814#1" type="type2" vehsPerHour="100.0" /><flow begin="0" end="7200" from="169381958" id="42448390-593915305_vt1" to="273019810#2" type="type1" vehsPerHour="360.0" /><flow begin="0" end="7200" from="169381958" id="42448390-593915305_vt2" to="273019810#2" type="type2" vehsPerHour="100.0" /><flow begin="0" end="7200" from="198595461#0" id="42436527-42453545_vt1" to="46482539#1" type="type1" vehsPerHour="360.0" /><flow begin="0" end="7200" from="198595461#0" id="42436527-42453545_vt2" to="46482539#1" type="type2" vehsPerHour="100.0" /><flow begin="0" end="7200" from="496986803#0" id="42446668-42447230_vt1" to="46240204#8" type="type1" vehsPerHour="360.0" /><flow begin="0" end="7200" from="496986803#0" id="42446668-42447230_vt2" to="46240204#8" type="type2" vehsPerHour="100.0" /><flow begin="0" end="7200" from="-375165665#1" id="4215909068-593915305_vt1" to="273019810#2" type="type1" vehsPerHour="720.0" /><flow begin="0" end="7200" from="-375165665#1" id="4215909068-593915305_vt2" to="273019810#2" type="type2" vehsPerHour="200.0" /><flow begin="0" end="7200" from="496986803#0" id="42446668-42449982_vt1" to="375165666#1" type="type1" vehsPerHour="360.0" /><flow begin="0" end="7200" from="496986803#0" id="42446668-42449982_vt2" to="375165666#1" type="type2" vehsPerHour="100.0" /><flow begin="0" end="7200" from="46522160#2" id="42429980-42435644_vt1" to="-420509471#0" type="type1" vehsPerHour="360.0" /><flow begin="0" end="7200" from="46522160#2" id="42429980-42435644_vt2" to="-420509471#0" type="type2" vehsPerHour="100.0" /><flow begin="0" end="7200" from="46522160#2" id="42429980-42453545_vt1" to="46482539#1" type="type1" vehsPerHour="360.0" /><flow begin="0" end="7200" from="46522160#2" id="42429980-42453545_vt2" to="46482539#1" type="type2" vehsPerHour="100.0" /><flow begin="0" end="7200" from="5672629" id="42424098-42435644_vt1" to="-420509471#0" type="type1" vehsPerHour="360.0" /><flow begin="0" end="7200" from="5672629" id="42424098-42435644_vt2" to="-420509471#0" type="type2" vehsPerHour="100.0" /><flow begin="0" end="7200" from="5672629" id="42424098-42453545_vt1" to="46482539#1" type="type1" vehsPerHour="360.0" /><flow begin="0" end="7200" from="5672629" id="42424098-42453545_vt2" to="46482539#1" type="type2" vehsPerHour="100.0" /><flow begin="0" end="7200" from="198595461#0" id="42436527-593915202_vt1" to="36806679#2" type="type1" vehsPerHour="360.0" /><flow begin="0" end="7200" from="198595461#0" id="42436527-593915202_vt2" to="36806679#2" type="type2" vehsPerHour="100.0" /><flow begin="0" end="7200" from="420904621" id="4207932666-42431656_vt1" to="5670029#4" type="type1" vehsPerHour="720.0" /><flow begin="0" end="7200" from="420904621" id="4207932666-42431656_vt2" to="5670029#4" type="type2" vehsPerHour="200.0" /><flow begin="0" end="7200" from="169381958" id="42448390-593915274_vt1" to="273019814#1" type="type1" vehsPerHour="360.0" /><flow begin="0" end="7200" from="169381958" id="42448390-593915274_vt2" to="273019814#1" type="type2" vehsPerHour="100.0" /><flow begin="0" end="7200" from="-375165665#1" id="4215909068-593915274_vt1" to="273019814#1" type="type1" vehsPerHour="720.0" /><flow begin="0" end="7200" from="-375165665#1" id="4215909068-593915274_vt2" to="273019814#1" type="type2" vehsPerHour="200.0" /><flow begin="0" end="7200" from="46522160#2" id="42429980-593915202_vt1" to="36806679#2" type="type1" vehsPerHour="360.0" /><flow begin="0" end="7200" from="46522160#2" id="42429980-593915202_vt2" to="36806679#2" type="type2" vehsPerHour="100.0" /><flow begin="0" end="7200" from="5672629" id="42424098-593915202_vt1" to="36806679#2" type="type1" vehsPerHour="360.0" /><flow begin="0" end="7200" from="5672629" id="42424098-593915202_vt2" to="36806679#2" type="type2" vehsPerHour="100.0" /><flow begin="0" end="7200" from="46443649" id="42440472-593915305_vt1" to="273019810#2" type="type1" vehsPerHour="360.0" /><flow begin="0" end="7200" from="46443649" id="42440472-593915305_vt2" to="273019810#2" type="type2" vehsPerHour="100.0" /><flow begin="0" end="7200" from="198595461#0" id="42436527-62915525_vt1" to="46435621#1" type="type1" vehsPerHour="360.0" /><flow begin="0" end="7200" from="198595461#0" id="42436527-62915525_vt2" to="46435621#1" type="type2" vehsPerHour="100.0" /><flow begin="0" end="7200" from="496986803#0" id="42446668-42455963_vt1" to="379843702#4" type="type1" vehsPerHour="360.0" /><flow begin="0" end="7200" from="496986803#0" id="42446668-42455963_vt2" to="379843702#4" type="type2" vehsPerHour="100.0" /><flow begin="0" end="7200" from="46522160#2" id="42429980-62915525_vt1" to="46435621#1" type="type1" vehsPerHour="360.0" /><flow begin="0" end="7200" from="46522160#2" id="42429980-62915525_vt2" to="46435621#1" type="type2" vehsPerHour="100.0" /><flow begin="0" end="7200" from="169381958" id="42448390-42453545_vt1" to="46482539#1" type="type1" vehsPerHour="360.0" /><flow begin="0" end="7200" from="169381958" id="42448390-42453545_vt2" to="46482539#1" type="type2" vehsPerHour="100.0" /><flow begin="0" end="7200" from="420904621" id="4207932666-42447230_vt1" to="46240204#8" type="type1" vehsPerHour="720.0" /><flow begin="0" end="7200" from="420904621" id="4207932666-42447230_vt2" to="46240204#8" type="type2" vehsPerHour="200.0" /><flow begin="0" end="7200" from="195743342#1" id="42455662-593915305_vt1" to="273019810#2" type="type1" vehsPerHour="360.0" /><flow begin="0" end="7200" from="195743342#1" id="42455662-593915305_vt2" to="273019810#2" type="type2" vehsPerHour="100.0" /><flow begin="0" end="7200" from="-375165665#1" id="4215909068-42435644_vt1" to="-420509471#0" type="type1" vehsPerHour="720.0" /><flow begin="0" end="7200" from="-375165665#1" id="4215909068-42435644_vt2" to="-420509471#0" type="type2" vehsPerHour="200.0" /><flow begin="0" end="7200" from="5672629" id="42424098-62915525_vt1" to="46435621#1" type="type1" vehsPerHour="360.0" /><flow begin="0" end="7200" from="5672629" id="42424098-62915525_vt2" to="46435621#1" type="type2" vehsPerHour="100.0" /><flow begin="0" end="7200" from="420904621" id="4207932666-42449982_vt1" to="375165666#1" type="type1" vehsPerHour="720.0" /><flow begin="0" end="7200" from="420904621" id="4207932666-42449982_vt2" to="375165666#1" type="type2" vehsPerHour="200.0" /><flow begin="0" end="7200" from="-375165665#1" id="4215909068-42453545_vt1" to="46482539#1" type="type1" vehsPerHour="720.0" /><flow begin="0" end="7200" from="-375165665#1" id="4215909068-42453545_vt2" to="46482539#1" type="type2" vehsPerHour="200.0" /><flow begin="0" end="7200" from="420904621" id="4207932666-42424089_vt1" to="455678353" type="type1" vehsPerHour="720.0" /><flow begin="0" end="7200" from="420904621" id="4207932666-42424089_vt2" to="455678353" type="type2" vehsPerHour="200.0" /><flow begin="0" end="7200" from="46443649" id="42440472-593915274_vt1" to="273019814#1" type="type1" vehsPerHour="360.0" /><flow begin="0" end="7200" from="46443649" id="42440472-593915274_vt2" to="273019814#1" type="type2" vehsPerHour="100.0" /><flow begin="0" end="7200" from="420904621" id="4207932666-42443618_vt1" to="466953403#1" type="type1" vehsPerHour="720.0" /><flow begin="0" end="7200" from="420904621" id="4207932666-42443618_vt2" to="466953403#1" type="type2" vehsPerHour="200.0" /><flow begin="0" end="7200" from="68674962#30" id="596775979-62915525_vt1" to="46435621#1" type="type1" vehsPerHour="360.0" /><flow begin="0" end="7200" from="68674962#30" id="596775979-62915525_vt2" to="46435621#1" type="type2" vehsPerHour="100.0" /><flow begin="0" end="7200" from="169381958" id="42448390-593915202_vt1" to="36806679#2" type="type1" vehsPerHour="360.0" /><flow begin="0" end="7200" from="169381958" id="42448390-593915202_vt2" to="36806679#2" type="type2" vehsPerHour="100.0" /><flow begin="0" end="7200" from="420904621" id="4207932666-42442961_vt1" to="375165500" type="type1" vehsPerHour="720.0" /><flow begin="0" end="7200" from="420904621" id="4207932666-42442961_vt2" to="375165500" type="type2" vehsPerHour="200.0" /><flow begin="0" end="7200" from="-375165665#1" id="4215909068-593915202_vt1" to="36806679#2" type="type1" vehsPerHour="720.0" /><flow begin="0" end="7200" from="-375165665#1" id="4215909068-593915202_vt2" to="36806679#2" type="type2" vehsPerHour="200.0" /><flow begin="0" end="7200" from="195743342#1" id="42455662-593915274_vt1" to="273019814#1" type="type1" vehsPerHour="360.0" /><flow begin="0" end="7200" from="195743342#1" id="42455662-593915274_vt2" to="273019814#1" type="type2" vehsPerHour="100.0" /><flow begin="0" end="7200" from="420904621" id="4207932666-4215909068_vt1" to="375165665#1" type="type1" vehsPerHour="720.0" /><flow begin="0" end="7200" from="420904621" id="4207932666-4215909068_vt2" to="375165665#1" type="type2" vehsPerHour="200.0" /><flow begin="0" end="7200" from="496986803#0" id="42446668-42453087_vt1" to="46521736" type="type1" vehsPerHour="360.0" /><flow begin="0" end="7200" from="496986803#0" id="42446668-42453087_vt2" to="46521736" type="type2" vehsPerHour="100.0" /><flow begin="0" end="7200" from="46443649" id="42440472-42453545_vt1" to="46482539#1" type="type1" vehsPerHour="360.0" /><flow begin="0" end="7200" from="46443649" id="42440472-42453545_vt2" to="46482539#1" type="type2" vehsPerHour="100.0" /><flow begin="0" end="7200" from="169381958" id="42448390-62915525_vt1" to="46435621#1" type="type1" vehsPerHour="360.0" /><flow begin="0" end="7200" from="169381958" id="42448390-62915525_vt2" to="46435621#1" type="type2" vehsPerHour="100.0" /><flow begin="0" end="7200" from="420802028#2" id="3569749143-593915305_vt1" to="273019810#2" type="type1" vehsPerHour="360.0" /><flow begin="0" end="7200" from="420802028#2" id="3569749143-593915305_vt2" to="273019810#2" type="type2" vehsPerHour="100.0" /><flow begin="0" end="7200" from="-375165665#1" id="4215909068-62915525_vt1" to="46435621#1" type="type1" vehsPerHour="720.0" /><flow begin="0" end="7200" from="-375165665#1" id="4215909068-62915525_vt2" to="46435621#1" type="type2" vehsPerHour="200.0" /><flow begin="0" end="7200" from="420904621" id="4207932666-42455963_vt1" to="379843702#4" type="type1" vehsPerHour="720.0" /><flow begin="0" end="7200" from="420904621" id="4207932666-42455963_vt2" to="379843702#4" type="type2" vehsPerHour="200.0" /><flow begin="0" end="7200" from="198595461#0" id="42436527-5458524665_vt1" to="46435596#3" type="type1" vehsPerHour="360.0" /><flow begin="0" end="7200" from="198595461#0" id="42436527-5458524665_vt2" to="46435596#3" type="type2" vehsPerHour="100.0" /><flow begin="0" end="7200" from="46443649" id="42440472-593915202_vt1" to="36806679#2" type="type1" vehsPerHour="360.0" /><flow begin="0" end="7200" from="46443649" id="42440472-593915202_vt2" to="36806679#2" type="type2" vehsPerHour="100.0" /><flow begin="0" end="7200" from="198595461#0" id="42436527-4599130022_vt1" to="46482592#1" type="type1" vehsPerHour="360.0" /><flow begin="0" end="7200" from="198595461#0" id="42436527-4599130022_vt2" to="46482592#1" type="type2" vehsPerHour="100.0" /><flow begin="0" end="7200" from="46522160#2" id="42429980-5458524665_vt1" to="46435596#3" type="type1" vehsPerHour="360.0" /><flow begin="0" end="7200" from="46522160#2" id="42429980-5458524665_vt2" to="46435596#3" type="type2" vehsPerHour="100.0" /><flow begin="0" end="7200" from="420802028#2" id="3569749143-593915274_vt1" to="273019814#1" type="type1" vehsPerHour="360.0" /><flow begin="0" end="7200" from="420802028#2" id="3569749143-593915274_vt2" to="273019814#1" type="type2" vehsPerHour="100.0" /><flow begin="0" end="7200" from="5672629" id="42424098-5458524665_vt1" to="46435596#3" type="type1" vehsPerHour="360.0" /><flow begin="0" end="7200" from="5672629" id="42424098-5458524665_vt2" to="46435596#3" type="type2" vehsPerHour="100.0" /><flow begin="0" end="7200" from="195743342#1" id="42455662-593915202_vt1" to="36806679#2" type="type1" vehsPerHour="360.0" /><flow begin="0" end="7200" from="195743342#1" id="42455662-593915202_vt2" to="36806679#2" type="type2" vehsPerHour="100.0" /><flow begin="0" end="7200" from="5671115#1" id="3874681649-42431656_vt1" to="5670029#4" type="type1" vehsPerHour="360.0" /><flow begin="0" end="7200" from="5671115#1" id="3874681649-42431656_vt2" to="5670029#4" type="type2" vehsPerHour="100.0" /><flow begin="0" end="7200" from="46522160#2" id="42429980-4599130022_vt1" to="46482592#1" type="type1" vehsPerHour="360.0" /><flow begin="0" end="7200" from="46522160#2" id="42429980-4599130022_vt2" to="46482592#1" type="type2" vehsPerHour="100.0" /><flow begin="0" end="7200" from="46443649" id="42440472-62915525_vt1" to="46435621#1" type="type1" vehsPerHour="360.0" /><flow begin="0" end="7200" from="46443649" id="42440472-62915525_vt2" to="46435621#1" type="type2" vehsPerHour="100.0" /><flow begin="0" end="7200" from="5672629" id="42424098-4599130022_vt1" to="46482592#1" type="type1" vehsPerHour="360.0" /><flow begin="0" end="7200" from="5672629" id="42424098-4599130022_vt2" to="46482592#1" type="type2" vehsPerHour="100.0" /><flow begin="0" end="7200" from="194926854#0" id="42435644-42447230_vt1" to="46240204#8" type="type1" vehsPerHour="1080.0" /><flow begin="0" end="7200" from="194926854#0" id="42435644-42447230_vt2" to="46240204#8" type="type2" vehsPerHour="300.0" /><flow begin="0" end="7200" from="194926854#0" id="42435644-42449982_vt1" to="375165666#1" type="type1" vehsPerHour="1080.0" /><flow begin="0" end="7200" from="194926854#0" id="42435644-42449982_vt2" to="375165666#1" type="type2" vehsPerHour="300.0" /><flow begin="0" end="7200" from="420904621" id="4207932666-42453087_vt1" to="46521736" type="type1" vehsPerHour="720.0" /><flow begin="0" end="7200" from="420904621" id="4207932666-42453087_vt2" to="46521736" type="type2" vehsPerHour="200.0" /><flow begin="0" end="7200" from="420802028#2" id="3569749143-42435644_vt1" to="-420509471#0" type="type1" vehsPerHour="360.0" /><flow begin="0" end="7200" from="420802028#2" id="3569749143-42435644_vt2" to="-420509471#0" type="type2" vehsPerHour="100.0" /><flow begin="0" end="7200" from="194926854#0" id="42435644-42443618_vt1" to="466953403#1" type="type1" vehsPerHour="1080.0" /><flow begin="0" end="7200" from="194926854#0" id="42435644-42443618_vt2" to="466953403#1" type="type2" vehsPerHour="300.0" /><flow begin="0" end="7200" from="195743342#1" id="42455662-62915525_vt1" to="46435621#1" type="type1" vehsPerHour="360.0" /><flow begin="0" end="7200" from="195743342#1" id="42455662-62915525_vt2" to="46435621#1" type="type2" vehsPerHour="100.0" /><flow begin="0" end="7200" from="420802028#2" id="3569749143-42453545_vt1" to="46482539#1" type="type1" vehsPerHour="360.0" /><flow begin="0" end="7200" from="420802028#2" id="3569749143-42453545_vt2" to="46482539#1" type="type2" vehsPerHour="100.0" /><flow begin="0" end="7200" from="198595461#0" id="42436527-4872429939_vt1" to="46443656#11" type="type1" vehsPerHour="360.0" /><flow begin="0" end="7200" from="198595461#0" id="42436527-4872429939_vt2" to="46443656#11" type="type2" vehsPerHour="100.0" /><flow begin="0" end="7200" from="5671115#1" id="3874681649-42447230_vt1" to="46240204#8" type="type1" vehsPerHour="360.0" /><flow begin="0" end="7200" from="5671115#1" id="3874681649-42447230_vt2" to="46240204#8" type="type2" vehsPerHour="100.0" /><flow begin="0" end="7200" from="194926854#0" id="42435644-42442961_vt1" to="375165500" type="type1" vehsPerHour="1080.0" /><flow begin="0" end="7200" from="194926854#0" id="42435644-42442961_vt2" to="375165500" type="type2" vehsPerHour="300.0" /><flow begin="0" end="7200" from="169381958" id="42448390-5458524665_vt1" to="46435596#3" type="type1" vehsPerHour="360.0" /><flow begin="0" end="7200" from="169381958" id="42448390-5458524665_vt2" to="46435596#3" type="type2" vehsPerHour="100.0" /><flow begin="0" end="7200" from="46522160#2" id="42429980-4872429939_vt1" to="46443656#11" type="type1" vehsPerHour="360.0" /><flow begin="0" end="7200" from="46522160#2" id="42429980-4872429939_vt2" to="46443656#11" type="type2" vehsPerHour="100.0" /><flow begin="0" end="7200" from="5671115#1" id="3874681649-42449982_vt1" to="375165666#1" type="type1" vehsPerHour="360.0" /><flow begin="0" end="7200" from="5671115#1" id="3874681649-42449982_vt2" to="375165666#1" type="type2" vehsPerHour="100.0" /><flow begin="0" end="7200" from="-375165665#1" id="4215909068-5458524665_vt1" to="46435596#3" type="type1" vehsPerHour="720.0" /><flow begin="0" end="7200" from="-375165665#1" id="4215909068-5458524665_vt2" to="46435596#3" type="type2" vehsPerHour="200.0" /><flow begin="0" end="7200" from="5672629" id="42424098-4872429939_vt1" to="46443656#11" type="type1" vehsPerHour="360.0" /><flow begin="0" end="7200" from="5672629" id="42424098-4872429939_vt2" to="46443656#11" type="type2" vehsPerHour="100.0" /><flow begin="0" end="7200" from="5671192#1" id="3569749123-593915305_vt1" to="273019810#2" type="type1" vehsPerHour="360.0" /><flow begin="0" end="7200" from="5671192#1" id="3569749123-593915305_vt2" to="273019810#2" type="type2" vehsPerHour="100.0" /><flow begin="0" end="7200" from="5671115#1" id="3874681649-42424089_vt1" to="455678353" type="type1" vehsPerHour="360.0" /><flow begin="0" end="7200" from="5671115#1" id="3874681649-42424089_vt2" to="455678353" type="type2" vehsPerHour="100.0" /><flow begin="0" end="7200" from="198595461#0" id="42436527-42437654_vt1" to="464543615#2" type="type1" vehsPerHour="360.0" /><flow begin="0" end="7200" from="198595461#0" id="42436527-42437654_vt2" to="464543615#2" type="type2" vehsPerHour="100.0" /><flow begin="0" end="7200" from="420802028#2" id="3569749143-593915202_vt1" to="36806679#2" type="type1" vehsPerHour="360.0" /><flow begin="0" end="7200" from="420802028#2" id="3569749143-593915202_vt2" to="36806679#2" type="type2" vehsPerHour="100.0" /><flow begin="0" end="7200" from="169381958" id="42448390-4599130022_vt1" to="46482592#1" type="type1" vehsPerHour="360.0" /><flow begin="0" end="7200" from="169381958" id="42448390-4599130022_vt2" to="46482592#1" type="type2" vehsPerHour="100.0" /><flow begin="0" end="7200" from="5671115#1" id="3874681649-42443618_vt1" to="466953403#1" type="type1" vehsPerHour="360.0" /><flow begin="0" end="7200" from="5671115#1" id="3874681649-42443618_vt2" to="466953403#1" type="type2" vehsPerHour="100.0" /><flow begin="0" end="7200" from="-375165665#1" id="4215909068-4599130022_vt1" to="46482592#1" type="type1" vehsPerHour="720.0" /><flow begin="0" end="7200" from="-375165665#1" id="4215909068-4599130022_vt2" to="46482592#1" type="type2" vehsPerHour="200.0" /><flow begin="0" end="7200" from="5673063#4" id="4917049626-593915305_vt1" to="273019810#2" type="type1" vehsPerHour="360.0" /><flow begin="0" end="7200" from="5673063#4" id="4917049626-593915305_vt2" to="273019810#2" type="type2" vehsPerHour="100.0" /><flow begin="0" end="7200" from="420802028#2" id="3569749143-4207932666_vt1" to="-420904621" type="type1" vehsPerHour="360.0" /><flow begin="0" end="7200" from="420802028#2" id="3569749143-4207932666_vt2" to="-420904621" type="type2" vehsPerHour="100.0" /><flow begin="0" end="7200" from="46522160#2" id="42429980-42437654_vt1" to="464543615#2" type="type1" vehsPerHour="360.0" /><flow begin="0" end="7200" from="46522160#2" id="42429980-42437654_vt2" to="464543615#2" type="type2" vehsPerHour="100.0" /><flow begin="0" end="7200" from="194926854#0" id="42435644-42455963_vt1" to="379843702#4" type="type1" vehsPerHour="1080.0" /><flow begin="0" end="7200" from="194926854#0" id="42435644-42455963_vt2" to="379843702#4" type="type2" vehsPerHour="300.0" /><flow begin="0" end="7200" from="5671115#1" id="3874681649-42442961_vt1" to="375165500" type="type1" vehsPerHour="360.0" /><flow begin="0" end="7200" from="5671115#1" id="3874681649-42442961_vt2" to="375165500" type="type2" vehsPerHour="100.0" /><flow begin="0" end="7200" from="5672629" id="42424098-42437654_vt1" to="464543615#2" type="type1" vehsPerHour="360.0" /><flow begin="0" end="7200" from="5672629" id="42424098-42437654_vt2" to="464543615#2" type="type2" vehsPerHour="100.0" /><flow begin="0" end="7200" from="420802028#2" id="3569749143-62915525_vt1" to="46435621#1" type="type1" vehsPerHour="360.0" /><flow begin="0" end="7200" from="420802028#2" id="3569749143-62915525_vt2" to="46435621#1" type="type2" vehsPerHour="100.0" /><flow begin="0" end="7200" from="420802028#2" id="3569749143-4207913306_vt1" to="194926856" type="type1" vehsPerHour="360.0" /><flow begin="0" end="7200" from="420802028#2" id="3569749143-4207913306_vt2" to="194926856" type="type2" vehsPerHour="100.0" /><flow begin="0" end="7200" from="5671192#1" id="3569749123-593915274_vt1" to="273019814#1" type="type1" vehsPerHour="360.0" /><flow begin="0" end="7200" from="5671192#1" id="3569749123-593915274_vt2" to="273019814#1" type="type2" vehsPerHour="100.0" /><flow begin="0" end="7200" from="5671115#1" id="3874681649-4215909068_vt1" to="375165665#1" type="type1" vehsPerHour="360.0" /><flow begin="0" end="7200" from="5671115#1" id="3874681649-4215909068_vt2" to="375165665#1" type="type2" vehsPerHour="100.0" /><flow begin="0" end="7200" from="198595461#0" id="42436527-5481838629_vt1" to="226041031#7" type="type1" vehsPerHour="360.0" /><flow begin="0" end="7200" from="198595461#0" id="42436527-5481838629_vt2" to="226041031#7" type="type2" vehsPerHour="100.0" /><flow begin="0" end="7200" from="46443649" id="42440472-5458524665_vt1" to="46435596#3" type="type1" vehsPerHour="360.0" /><flow begin="0" end="7200" from="46443649" id="42440472-5458524665_vt2" to="46435596#3" type="type2" vehsPerHour="100.0" /><flow begin="0" end="7200" from="5673063#4" id="4917049626-593915274_vt1" to="273019814#1" type="type1" vehsPerHour="360.0" /><flow begin="0" end="7200" from="5673063#4" id="4917049626-593915274_vt2" to="273019814#1" type="type2" vehsPerHour="100.0" /><flow begin="0" end="7200" from="169381958" id="42448390-4872429939_vt1" to="46443656#11" type="type1" vehsPerHour="360.0" /><flow begin="0" end="7200" from="169381958" id="42448390-4872429939_vt2" to="46443656#11" type="type2" vehsPerHour="100.0" /><flow begin="0" end="7200" from="5671115#1" id="3874681649-42455963_vt1" to="379843702#4" type="type1" vehsPerHour="360.0" /><flow begin="0" end="7200" from="5671115#1" id="3874681649-42455963_vt2" to="379843702#4" type="type2" vehsPerHour="100.0" /><flow begin="0" end="7200" from="-375165665#1" id="4215909068-4872429939_vt1" to="46443656#11" type="type1" vehsPerHour="720.0" /><flow begin="0" end="7200" from="-375165665#1" id="4215909068-4872429939_vt2" to="46443656#11" type="type2" vehsPerHour="200.0" /><flow begin="0" end="7200" from="46443649" id="42440472-4599130022_vt1" to="46482592#1" type="type1" vehsPerHour="360.0" /><flow begin="0" end="7200" from="46443649" id="42440472-4599130022_vt2" to="46482592#1" type="type2" vehsPerHour="100.0" /><flow begin="0" end="7200" from="46522160#2" id="42429980-5481838629_vt1" to="226041031#7" type="type1" vehsPerHour="360.0" /><flow begin="0" end="7200" from="46522160#2" id="42429980-5481838629_vt2" to="226041031#7" type="type2" vehsPerHour="100.0" /><flow begin="0" end="7200" from="5671192#1" id="3569749123-42430722_vt1" to="46538371#7" type="type1" vehsPerHour="360.0" /><flow begin="0" end="7200" from="5671192#1" id="3569749123-42430722_vt2" to="46538371#7" type="type2" vehsPerHour="100.0" /><flow begin="0" end="7200" from="195743342#1" id="42455662-5458524665_vt1" to="46435596#3" type="type1" vehsPerHour="360.0" /><flow begin="0" end="7200" from="195743342#1" id="42455662-5458524665_vt2" to="46435596#3" type="type2" vehsPerHour="100.0" /><flow begin="0" end="7200" from="5672629" id="42424098-5481838629_vt1" to="226041031#7" type="type1" vehsPerHour="360.0" /><flow begin="0" end="7200" from="5672629" id="42424098-5481838629_vt2" to="226041031#7" type="type2" vehsPerHour="100.0" /><flow begin="0" end="7200" from="5671192#1" id="3569749123-42435644_vt1" to="-420509471#0" type="type1" vehsPerHour="360.0" /><flow begin="0" end="7200" from="5671192#1" id="3569749123-42435644_vt2" to="-420509471#0" type="type2" vehsPerHour="100.0" /><flow begin="0" end="7200" from="5671192#1" id="3569749123-42453545_vt1" to="46482539#1" type="type1" vehsPerHour="360.0" /><flow begin="0" end="7200" from="5671192#1" id="3569749123-42453545_vt2" to="46482539#1" type="type2" vehsPerHour="100.0" /><flow begin="0" end="7200" from="194926854#0" id="42435644-42453087_vt1" to="46521736" type="type1" vehsPerHour="1080.0" /><flow begin="0" end="7200" from="194926854#0" id="42435644-42453087_vt2" to="46521736" type="type2" vehsPerHour="300.0" /><flow begin="0" end="7200" from="5671192#1" id="3569749123-5481838629_vt1" to="226041031#7" type="type1" vehsPerHour="360.0" /><flow begin="0" end="7200" from="5671192#1" id="3569749123-5481838629_vt2" to="226041031#7" type="type2" vehsPerHour="100.0" /><flow begin="0" end="7200" from="195743342#1" id="42455662-4599130022_vt1" to="46482592#1" type="type1" vehsPerHour="360.0" /><flow begin="0" end="7200" from="195743342#1" id="42455662-4599130022_vt2" to="46482592#1" type="type2" vehsPerHour="100.0" /><flow begin="0" end="7200" from="-375165665#1" id="4215909068-42437654_vt1" to="464543615#2" type="type1" vehsPerHour="720.0" /><flow begin="0" end="7200" from="-375165665#1" id="4215909068-42437654_vt2" to="464543615#2" type="type2" vehsPerHour="200.0" /><flow begin="0" end="7200" from="-505582406#0" id="4546351682-593915305_vt1" to="273019810#2" type="type1" vehsPerHour="720.0" /><flow begin="0" end="7200" from="-505582406#0" id="4546351682-593915305_vt2" to="273019810#2" type="type2" vehsPerHour="200.0" /><flow begin="0" end="7200" from="5671192#1" id="3569749123-42440966_vt1" to="499172074#15" type="type1" vehsPerHour="360.0" /><flow begin="0" end="7200" from="5671192#1" id="3569749123-42440966_vt2" to="499172074#15" type="type2" vehsPerHour="100.0" /><flow begin="0" end="7200" from="384649120#0" id="42430308-42431656_vt1" to="5670029#4" type="type1" vehsPerHour="360.0" /><flow begin="0" end="7200" from="384649120#0" id="42430308-42431656_vt2" to="5670029#4" type="type2" vehsPerHour="100.0" /><flow begin="0" end="7200" from="5671192#1" id="3569749123-4872429939_vt1" to="46443656#11" type="type1" vehsPerHour="360.0" /><flow begin="0" end="7200" from="5671192#1" id="3569749123-4872429939_vt2" to="46443656#11" type="type2" vehsPerHour="100.0" /><flow begin="0" end="7200" from="458166897#8" id="42449948-593915305_vt1" to="273019810#2" type="type1" vehsPerHour="360.0" /><flow begin="0" end="7200" from="458166897#8" id="42449948-593915305_vt2" to="273019810#2" type="type2" vehsPerHour="100.0" /><flow begin="0" end="7200" from="5671192#1" id="3569749123-593915202_vt1" to="36806679#2" type="type1" vehsPerHour="360.0" /><flow begin="0" end="7200" from="5671192#1" id="3569749123-593915202_vt2" to="36806679#2" type="type2" vehsPerHour="100.0" /><flow begin="0" end="7200" from="46443649" id="42440472-4872429939_vt1" to="46443656#11" type="type1" vehsPerHour="360.0" /><flow begin="0" end="7200" from="46443649" id="42440472-4872429939_vt2" to="46443656#11" type="type2" vehsPerHour="100.0" /><flow begin="0" end="7200" from="5671115#1" id="3874681649-42453087_vt1" to="46521736" type="type1" vehsPerHour="360.0" /><flow begin="0" end="7200" from="5671115#1" id="3874681649-42453087_vt2" to="46521736" type="type2" vehsPerHour="100.0" /><flow begin="0" end="7200" from="195743211#0" id="42430736-42453087_vt1" to="46521736" type="type1" vehsPerHour="360.0" /><flow begin="0" end="7200" from="195743211#0" id="42430736-42453087_vt2" to="46521736" type="type2" vehsPerHour="100.0" /><flow begin="0" end="7200" from="5671192#1" id="3569749123-4207932666_vt1" to="-420904621" type="type1" vehsPerHour="360.0" /><flow begin="0" end="7200" from="5671192#1" id="3569749123-4207932666_vt2" to="-420904621" type="type2" vehsPerHour="100.0" /><flow begin="0" end="7200" from="5673063#4" id="4917049626-593915202_vt1" to="36806679#2" type="type1" vehsPerHour="360.0" /><flow begin="0" end="7200" from="5673063#4" id="4917049626-593915202_vt2" to="36806679#2" type="type2" vehsPerHour="100.0" /><flow begin="0" end="7200" from="169381958" id="42448390-5481838629_vt1" to="226041031#7" type="type1" vehsPerHour="360.0" /><flow begin="0" end="7200" from="169381958" id="42448390-5481838629_vt2" to="226041031#7" type="type2" vehsPerHour="100.0" /><flow begin="0" end="7200" from="420802028#2" id="3569749143-5458524665_vt1" to="46435596#3" type="type1" vehsPerHour="360.0" /><fl