<?xml version='1.0' encoding='utf-8'?>
<routes><vType id="type1" length="5" maxSpeed="11.0" /><flow begin="0" end="7200" from="198595461#0" id="42436527-593915274" to="273019814#1" type="type1" vehsPerHour="360.0" /><flow begin="0" end="7200" from="46522160#2" id="42429980-593915274" to="273019814#1" type="type1" vehsPerHour="360.0" /><flow begin="0" end="7200" from="5672629" id="42424098-593915274" to="273019814#1" type="type1" vehsPerHour="360.0" /><flow begin="0" end="7200" from="198595461#0" id="42436527-42453545" to="46482539#1" type="type1" vehsPerHour="360.0" /><flow begin="0" end="7200" from="496986803#0" id="42446668-42447230" to="46240204#8" type="type1" vehsPerHour="360.0" /><flow begin="0" end="7200" from="496986803#0" id="42446668-42449982" to="375165666#1" type="type1" vehsPerHour="360.0" /><flow begin="0" end="7200" from="46522160#2" id="42429980-42435644" to="-420509471#0" type="type1" vehsPerHour="360.0" /><flow begin="0" end="7200" from="46522160#2" id="42429980-42453545" to="46482539#1" type="type1" vehsPerHour="360.0" /><flow begin="0" end="7200" from="5672629" id="42424098-42435644" to="-420509471#0" type="type1" vehsPerHour="360.0" /><flow begin="0" end="7200" from="5672629" id="42424098-42453545" to="46482539#1" type="type1" vehsPerHour="360.0" /><flow begin="0" end="7200" from="198595461#0" id="42436527-593915202" to="36806679#2" type="type1" vehsPerHour="360.0" /><flow begin="0" end="7200" from="169381958" id="42448390-593915274" to="273019814#1" type="type1" vehsPerHour="360.0" /><flow begin="0" end="7200" from="46522160#2" id="42429980-593915202" to="36806679#2" type="type1" vehsPerHour="360.0" /><flow begin="0" end="7200" from="5672629" id="42424098-593915202" to="36806679#2" type="type1" vehsPerHour="360.0" /><flow begin="0" end="7200" from="198595461#0" id="42436527-62915525" to="46435621#1" type="type1" vehsPerHour="360.0" /><flow begin="0" end="7200" from="496986803#0" id="42446668-42455963" to="379843702#4" type="type1" vehsPerHour="360.0" /><flow begin="0" end="7200" from="46522160#2" id="42429980-62915525" to="46435621#1" type="type1" vehsPerHour="360.0" /><flow begin="0" end="7200" from="169381958" id="42448390-42453545" to="46482539#1" type="type1" vehsPerHour="360.0" /><flow begin="0" end="7200" from="5672629" id="42424098-62915525" to="46435621#1" type="type1" vehsPerHour="360.0" /><flow begin="0" end="7200" from="46443649" id="42440472-593915274" to="273019814#1" type="type1" vehsPerHour="360.0" /><flow begin="0" end="7200" from="68674962#30" id="596775979-62915525" to="46435621#1" type="type1" vehsPerHour="360.0" /><flow begin="0" end="7200" from="169381958" id="42448390-593915202" to="36806679#2" type="type1" vehsPerHour="360.0" /><flow begin="0" end="7200" from="195743342#1" id="42455662-593915274" to="273019814#1" type="type1" vehsPerHour="360.0" /><flow begin="0" end="7200" from="496986803#0" id="42446668-42453087" to="46521736" type="type1" vehsPerHour="360.0" /><flow begin="0" end="7200" from="46443649" id="42440472-42453545" to="46482539#1" type="type1" vehsPerHour="360.0" /><flow begin="0" end="7200" from="169381958" id="42448390-62915525" to="46435621#1" type="type1" vehsPerHour="360.0" /><flow begin="0" end="7200" from="198595461#0" id="42436527-5458524665" to="46435596#3" type="type1" vehsPerHour="360.0" /><flow begin="0" end="7200" from="46443649" id="42440472-593915202" to="36806679#2" type="type1" vehsPerHour="360.0" /><flow begin="0" end="7200" from="198595461#0" id="42436527-4599130022" to="46482592#1" type="type1" vehsPerHour="360.0" /><flow begin="0" end="7200" from="46522160#2" id="42429980-5458524665" to="46435596#3" type="type1" vehsPerHour="360.0" /><flow begin="0" end="7200" from="420802028#2" id="3569749143-593915274" to="273019814#1" type="type1" vehsPerHour="360.0" /><flow begin="0" end="7200" from="5672629" id="42424098-5458524665" to="46435596#3" type="type1" vehsPerHour="360.0" /><flow begin="0" end="7200" from="195743342#1" id="42455662-593915202" to="36806679#2" type="type1" vehsPerHour="360.0" /><flow begin="0" end="7200" from="5671115#1" id="3874681649-42431656" to="5670029#4" type="type1" vehsPerHour="360.0" /><flow begin="0" end="7200" from="46522160#2" id="42429980-4599130022" to="46482592#1" type="type1" vehsPerHour="360.0" /><flow begin="0" end="7200" from="46443649" id="42440472-62915525" to="46435621#1" type="type1" vehsPerHour="360.0" /><flow begin="0" end="7200" from="5672629" id="42424098-4599130022" to="46482592#1" type="type1" vehsPerHour="360.0" /><flow begin="0" end="7200" from="194926854#0" id="42435644-42447230" to="46240204#8" type="type1" vehsPerHour="1080.0" /><flow begin="0" end="7200" from="194926854#0" id="42435644-42449982" to="375165666#1" type="type1" vehsPerHour="1080.0" /><flow begin="0" end="7200" from="420802028#2" id="3569749143-42435644" to="-420509471#0" type="type1" vehsPerHour="360.0" /><flow begin="0" end="7200" from="194926854#0" id="42435644-42443618" to="466953403#1" type="type1" vehsPerHour="1080.0" /><flow begin="0" end="7200" from="195743342#1" id="42455662-62915525" to="46435621#1" type="type1" vehsPerHour="360.0" /><flow begin="0" end="7200" from="420802028#2" id="3569749143-42453545" to="46482539#1" type="type1" vehsPerHour="360.0" /><flow begin="0" end="7200" from="198595461#0" id="42436527-4872429939" to="46443656#11" type="type1" vehsPerHour="360.0" /><flow begin="0" end="7200" from="5671115#1" id="3874681649-42447230" to="46240204#8" type="type1" vehsPerHour="360.0" /><flow begin="0" end="7200" from="194926854#0" id="42435644-42442961" to="375165500" type="type1" vehsPerHour="1080.0" /><flow begin="0" end="7200" from="169381958" id="42448390-5458524665" to="46435596#3" type="type1" vehsPerHour="360.0" /><flow begin="0" end="7200" from="46522160#2" id="42429980-4872429939" to="46443656#11" type="type1" vehsPerHour="360.0" /><flow begin="0" end="7200" from="5671115#1" id="3874681649-42449982" to="375165666#1" type="type1" vehsPerHour="360.0" /><flow begin="0" end="7200" from="5672629" id="42424098-4872429939" to="46443656#11" type="type1" vehsPerHour="360.0" /><flow begin="0" end="7200" from="5671115#1" id="3874681649-42424089" to="455678353" type="type1" vehsPerHour="360.0" /><flow begin="0" end="7200" from="198595461#0" id="42436527-42437654" to="464543615#2" type="type1" vehsPerHour="360.0" /><flow begin="0" end="7200" from="420802028#2" id="3569749143-593915202" to="36806679#2" type="type1" vehsPerHour="360.0" /><flow begin="0" end="7200" from="169381958" id="42448390-4599130022" to="46482592#1" type="type1" vehsPerHour="360.0" /><flow begin="0" end="7200" from="5671115#1" id="3874681649-42443618" to="466953403#1" type="type1" vehsPerHour="360.0" /><flow begin="0" end="7200" from="46522160#2" id="42429980-42437654" to="464543615#2" type="type1" vehsPerHour="360.0" /><flow begin="0" end="7200" from="194926854#0" id="42435644-42455963" to="379843702#4" type="type1" vehsPerHour="1080.0" /><flow begin="0" end="7200" from="5671115#1" id="3874681649-42442961" to="375165500" type="type1" vehsPerHour="360.0" /><flow begin="0" end="7200" from="5672629" id="42424098-42437654" to="464543615#2" type="type1" vehsPerHour="360.0" /><flow begin="0" end="7200" from="420802028#2" id="3569749143-62915525" to="46435621#1" type="type1" vehsPerHour="360.0" /><flow begin="0" end="7200" from="420802028#2" id="3569749143-4207913306" to="194926856" type="type1" vehsPerHour="360.0" /><flow begin="0" end="7200" from="5671192#1" id="3569749123-593915274" to="273019814#1" type="type1" vehsPerHour="360.0" /><flow begin="0" end="7200" from="198595461#0" id="42436527-5481838629" to="226041031#7" type="type1" vehsPerHour="360.0" /><flow begin="0" end="7200" from="46443649" id="42440472-5458524665" to="46435596#3" type="type1" vehsPerHour="360.0" /><flow begin="0" end="7200" from="5673063#4" id="4917049626-593915274" to="273019814#1" type="type1" vehsPerHour="360.0" /><flow begin="0" end="7200" from="169381958" id="42448390-4872429939" to="46443656#11" type="type1" vehsPerHour="360.0" /><flow begin="0" end="7200" from="5671115#1" id="3874681649-42455963" to="379843702#4" type="type1" vehsPerHour="360.0" /><flow begin="0" end="7200" from="46443649" id="42440472-4599130022" to="46482592#1" type="type1" vehsPerHour="360.0" /><flow begin="0" end="7200" from="46522160#2" id="42429980-5481838629" to="226041031#7" type="type1" vehsPerHour="360.0" /><flow begin="0" end="7200" from="5671192#1" id="3569749123-42430722" to="46538371#7" type="type1" vehsPerHour="360.0" /><flow begin="0" end="7200" from="195743342#1" id="42455662-5458524665" to="46435596#3" type="type1" vehsPerHour="360.0" /><flow begin="0" end="7200" from="5672629" id="42424098-5481838629" to="226041031#7" type="type1" vehsPerHour="360.0" /><flow begin="0" end="7200" from="5671192#1" id="3569749123-42435644" to="-420509471#0" type="type1" vehsPerHour="360.0" /><flow begin="0" end="7200" from="5671192#1" id="3569749123-42453545" to="46482539#1" type="type1" vehsPerHour="360.0" /><flow begin="0" end="7200" from="194926854#0" id="42435644-42453087" to="46521736" type="type1" vehsPerHour="1080.0" /><flow begin="0" end="7200" from="5671192#1" id="3569749123-5481838629" to="226041031#7" type="type1" vehsPerHour="360.0" /><flow begin="0" end="7200" from="195743342#1" id="42455662-4599130022" to="46482592#1" type="type1" vehsPerHour="360.0" /><flow begin="0" end="7200" from="5671192#1" id="3569749123-42440966" to="499172074#15" type="type1" vehsPerHour="360.0" /><flow begin="0" end="7200" from="384649120#0" id="42430308-42431656" to="5670029#4" type="type1" vehsPerHour="360.0" /><flow begin="0" end="7200" from="5671192#1" id="3569749123-4872429939" to="46443656#11" type="type1" vehsPerHour="360.0" /><flow begin="0" end="7200" from="5671192#1" id="3569749123-593915202" to="36806679#2" type="type1" vehsPerHour="360.0" /><flow begin="0" end="7200" from="46443649" id="42440472-4872429939" to="46443656#11" type="type1" vehsPerHour="360.0" /><flow begin="0" end="7200" from="5671115#1" id="3874681649-42453087" to="46521736" type="type1" vehsPerHour="360.0" /><flow begin="0" end="7200" from="195743211#0" id="42430736-42453087" to="46521736" type="type1" vehsPerHour="360.0" /><flow begin="0" end="7200" from="5673063#4" id="4917049626-593915202" to="36806679#2" type="type1" vehsPerHour="360.0" /><flow begin="0" end="7200" from="169381958" id="42448390-5481838629" to="226041031#7" type="type1" vehsPerHour="360.0" /><flow begin="0" end="7200" from="420802028#2" id="3569749143-5458524665" to="46435596#3" type="type1" vehsPerHour="360.0" /><flow begin="0" end="7200" from="195743342#1" id="42455662-4872429939" to="46443656#11" type="type1" vehsPerHour="360.0" /><flow begin="0" end="7200" from="5671192#1" id="3569749123-62915525" to="46435621#1" type="type1" vehsPerHour="360.0" /><flow begin="0" end="7200" from="5671192#1" id="3569749123-4207913306" to="194926856" type="type1" vehsPerHour="360.0" /><flow begin="0" end="7200" from="458166897#8" id="42449948-593915274" to="273019814#1" type="type1" vehsPerHour="360.0" /><flow begin="0" end="7200" from="384649120#0" id="42430308-42447230" to="46240204#8" type="type1" vehsPerHour="360.0" /><flow begin="0" end="7200" from="420802028#2" id="3569749143-4599130022" to="46482592#1" type="type1" vehsPerHour="360.0" /><flow begin="0" end="7200" from="195743211#0" id="42430736-42431656" to="5670029#4" type="type1" vehsPerHour="360.0" /><flow begin="0" end="7200" from="46522160#2" id="42429980-42430722" to="46538371#7" type="type1" vehsPerHour="360.0" /><flow begin="0" end="7200" from="384649120#0" id="42430308-42449982" to="375165666#1" type="type1" vehsPerHour="360.0" /><flow begin="0" end="7200" from="5673063#4" id="4917049626-62915525" to="46435621#1" type="type1" vehsPerHour="360.0" /><flow begin="0" end="7200" from="5672629" id="42424098-42430722" to="46538371#7" type="type1" vehsPerHour="360.0" /><flow begin="0" end="7200" from="496986803#0" id="42446668-42446977" to="496990647#0" type="type1" vehsPerHour="360.0" /><flow begin="0" end="7200" from="5671192#1" id="3569749123-4599130022" to="46482592#1" type="type1" vehsPerHour="360.0" /><flow begin="0" end="7200" from="265356028#2" id="42431563-42453087" to="46521736" type="type1" vehsPerHour="360.0" /><flow begin="0" end="7200" from="420802028#2" id="3569749143-42430722" to="46538371#7" type="type1" vehsPerHour="360.0" /><flow begin="0" end="7200" from="384649120#0" id="42430308-42443618" to="466953403#1" type="type1" vehsPerHour="360.0" /><flow begin="0" end="7200" from="195743211#0" id="42430736-42443950" to="438385431#4" type="type1" vehsPerHour="360.0" /><flow begin="0" end="7200" from="420802028#2" id="3569749143-5481838629" to="226041031#7" type="type1" vehsPerHour="360.0" /><flow begin="0" end="7200" from="195743211#0" id="42430736-561042200" to="5670106#2" type="type1" vehsPerHour="360.0" /><flow begin="0" end="7200" from="384649120#0" id="42430308-42442961" to="375165500" type="type1" vehsPerHour="360.0" /><flow begin="0" end="7200" from="5671115#1" id="3874681649-4207912631" to="169267542#3" type="type1" vehsPerHour="360.0" /><flow begin="0" end="7200" from="46443649" id="42440472-5481838629" to="226041031#7" type="type1" vehsPerHour="360.0" /><flow begin="0" end="7200" from="458166897#8" id="42449948-42453545" to="46482539#1" type="type1" vehsPerHour="360.0" /><flow begin="0" end="7200" from="458166897#8" id="42449948-5481838629" to="226041031#7" type="type1" vehsPerHour="360.0" /><flow begin="0" end="7200" from="195743211#0" id="42430736-42447230" to="46240204#8" type="type1" vehsPerHour="360.0" /><flow begin="0" end="7200" from="420802028#2" id="3569749143-42440966" to="499172074#15" type="type1" vehsPerHour="360.0" /><flow begin="0" end="7200" from="5673063#4" id="4917049626-5481838629" to="226041031#7" type="type1" vehsPerHour="360.0" /><flow begin="0" end="7200" from="420802028#2" id="3569749143-4872429939" to="46443656#11" type="type1" vehsPerHour="360.0" /><flow begin="0" end="7200" from="195743211#0" id="42430736-42449982" to="375165666#1" type="type1" vehsPerHour="360.0" /><flow begin="0" end="7200" from="195743211#0" id="42430736-42446977" to="496990647#0" type="type1" vehsPerHour="360.0" /><flow begin="0" end="7200" from="265356028#2" id="42431563-42443950" to="438385431#4" type="type1" vehsPerHour="360.0" /><flow begin="0" end="7200" from="5671192#1" id="3569749123-4207815982" to="196117092" type="type1" vehsPerHour="360.0" /><flow begin="0" end="7200" from="46443649" id="42440472-42440966" to="499172074#15" type="type1" vehsPerHour="360.0" /><flow begin="0" end="7200" from="195743342#1" id="42455662-5481838629" to="226041031#7" type="type1" vehsPerHour="360.0" /><flow begin="0" end="7200" from="265356028#2" id="42431563-561042200" to="5670106#2" type="type1" vehsPerHour="360.0" /><flow begin="0" end="7200" from="195743211#0" id="42430736-42443618" to="466953403#1" type="type1" vehsPerHour="360.0" /><flow begin="0" end="7200" from="458166897#8" id="42449948-4872429939" to="46443656#11" type="type1" vehsPerHour="360.0" /><flow begin="0" end="7200" from="458166897#8" id="42449948-593915202" to="36806679#2" type="type1" vehsPerHour="360.0" /><flow begin="0" end="7200" from="384649120#0" id="42430308-42455963" to="379843702#4" type="type1" vehsPerHour="360.0" /><flow begin="0" end="7200" from="420802028#2" id="3569749143-42437654" to="464543615#2" type="type1" vehsPerHour="360.0" /><flow begin="0" end="7200" from="195743211#0" id="42430736-42442961" to="375165500" type="type1" vehsPerHour="360.0" /><flow begin="0" end="7200" from="265356028#2" id="42431563-42446977" to="496990647#0" type="type1" vehsPerHour="360.0" /><flow begin="0" end="7200" from="5671192#1" id="3569749123-5458524665" to="46435596#3" type="type1" vehsPerHour="360.0" /><flow begin="0" end="7200" from="384649120#0" id="42430308-42430722" to="46538371#7" type="type1" vehsPerHour="360.0" /><flow begin="0" end="7200" from="458166897#8" id="42449948-62915525" to="46435621#1" type="type1" vehsPerHour="360.0" /><flow begin="0" end="7200" from="194920158#3" id="5481838621-561042200" to="5670106#2" type="type1" vehsPerHour="360.0" /><flow begin="0" end="7200" from="198595461#0" id="42436527-42443950" to="438385431#4" type="type1" vehsPerHour="360.0" /><flow begin="0" end="7200" from="5673063#4" id="4917049626-5458524665" to="46435596#3" type="type1" vehsPerHour="360.0" /><flow begin="0" end="7200" from="384649120#0" id="42430308-5481838629" to="226041031#7" type="type1" vehsPerHour="360.0" /><flow begin="0" end="7200" from="195743211#0" id="42430736-42455963" to="226041009" type="type1" vehsPerHour="360.0" /><flow begin="0" end="7200" from="5671115#1" id="3874681649-42443950" to="438385431#4" type="type1" vehsPerHour="360.0" /><flow begin="0" end="7200" from="198595461#0" id="42436527-561042200" to="5670106#2" type="type1" vehsPerHour="360.0" /><flow begin="0" end="7200" from="5671115#1" id="3874681649-561042200" to="5670106#2" type="type1" vehsPerHour="360.0" /><flow begin="0" end="7200" from="458166897#8" id="42449948-4599130022" to="46482592#1" type="type1" vehsPerHour="360.0" /><flow begin="0" end="7200" from="198595461#0" id="42436527-42440966" to="499172074#15" type="type1" vehsPerHour="360.0" /><flow begin="0" end="7200" from="46522160#2" id="42429980-42443950" to="438385431#4" type="type1" vehsPerHour="360.0" /><flow begin="0" end="7200" from="195743211#0" id="42430736-42437654" to="464543615#2" type="type1" vehsPerHour="360.0" /><flow begin="0" end="7200" from="384649120#0" id="42430308-42453087" to="46521736" type="type1" vehsPerHour="360.0" /><flow begin="0" end="7200" from="46522160#2" id="42429980-561042200" to="5670106#2" type="type1" vehsPerHour="360.0" /><flow begin="0" end="7200" from="384649120#0" id="42430308-42440966" to="499172074#15" type="type1" vehsPerHour="360.0" /><flow begin="0" end="7200" from="5672629" id="42424098-42443950" to="438385431#4" type="type1" vehsPerHour="360.0" /><flow begin="0" end="7200" from="265356028#2" id="42431563-42431656" to="5670029#4" type="type1" vehsPerHour="360.0" /><flow begin="0" end="7200" from="46522160#2" id="42429980-42440966" to="499172074#15" type="type1" vehsPerHour="360.0" /><flow begin="0" end="7200" from="384649120#0" id="42430308-4872429939" to="46443656#11" type="type1" vehsPerHour="360.0" /><flow begin="0" end="7200" from="5672629" id="42424098-561042200" to="5670106#2" type="type1" vehsPerHour="360.0" /><flow begin="0" end="7200" from="5671115#1" id="3874681649-42446977" to="496990647#0" type="type1" vehsPerHour="360.0" /><flow begin="0" end="7200" from="5672629" id="42424098-42440966" to="499172074#15" type="type1" vehsPerHour="360.0" /><flow begin="0" end="7200" from="265356028#2" id="42431563-42455963" to="226041009" type="type1" vehsPerHour="360.0" /><flow begin="0" end="7200" from="420802028#2" id="3569749143-4207815982" to="196117092" type="type1" vehsPerHour="360.0" /><flow begin="0" end="7200" from="265356028#2" id="42431563-42437654" to="464543615#2" type="type1" vehsPerHour="360.0" /><flow begin="0" end="7200" from="5671192#1" id="3569749123-42431656" to="5670029#4" type="type1" vehsPerHour="360.0" /><flow begin="0" end="7200" from="195743211#0" id="42430736-593915274" to="273019814#1" type="type1" vehsPerHour="360.0" /><flow begin="0" end="7200" from="265356028#2" id="42431563-42447230" to="46240204#8" type="type1" vehsPerHour="360.0" /><flow begin="0" end="7200" from="5671192#1" id="3569749123-42437654" to="464543615#2" type="type1" vehsPerHour="360.0" /><flow begin="0" end="7200" from="496986803#0" id="42446668-561042200" to="5670106#2" type="type1" vehsPerHour="360.0" /><flow begin="0" end="7200" from="265356028#2" id="42431563-42449982" to="375165666#1" type="type1" vehsPerHour="360.0" /><flow begin="0" end="7200" from="384649120#0" id="42430308-4599130022" to="46482592#1" type="type1" vehsPerHour="360.0" /><flow begin="0" end="7200" from="169381958" id="42448390-561042200" to="5670106#2" type="type1" vehsPerHour="360.0" /><flow begin="0" end="7200" from="265356028#2" id="42431563-42443618" to="466953403#1" type="type1" vehsPerHour="360.0" /><flow begin="0" end="7200" from="46435602#4" id="5458524666-561042200" to="5670106#2" type="type1" vehsPerHour="360.0" /><flow begin="0" end="7200" from="458166897#8" id="42449948-5458524665" to="46435596#3" type="type1" vehsPerHour="360.0" /><flow begin="0" end="7200" from="194926854#0" id="42435644-42446977" to="496990647#0" type="type1" vehsPerHour="1080.0" /><flow begin="0" end="7200" from="265356028#2" id="42431563-593915274" to="273019814#1" type="type1" vehsPerHour="360.0" /><flow begin="0" end="7200" from="195743211#0" id="42430736-42435644" to="-420509471#0" type="type1" vehsPerHour="360.0" /><flow begin="0" end="7200" from="265356028#2" id="42431563-42442961" to="375165500" type="type1" vehsPerHour="360.0" /><flow begin="0" end="7200" from="5671192#1" id="3569749123-42447230" to="46240204#8" type="type1" vehsPerHour="360.0" /><flow begin="0" end="7200" from="195743211#0" id="42430736-42453545" to="46482539#1" type="type1" vehsPerHour="360.0" /><flow begin="0" end="7200" from="5671115#1" id="3874681649-42437654" to="464543615#2" type="type1" vehsPerHour="360.0" /><flow begin="0" end="7200" from="46443649" id="42440472-42443950" to="438385431#4" type="type1" vehsPerHour="360.0" /><flow begin="0" end="7200" from="265356028#2" id="42431563-42435644" to="-420509471#0" type="type1" vehsPerHour="360.0" /><flow begin="0" end="7200" from="195743211#0" id="42430736-593915202" to="36806679#2" type="type1" vehsPerHour="360.0" /><flow begin="0" end="7200" from="46443649" id="42440472-561042200" to="5670106#2" type="type1" vehsPerHour="360.0" /><flow begin="0" end="7200" from="265356028#2" id="42431563-42453545" to="46482539#1" type="type1" vehsPerHour="360.0" /><flow begin="0" end="7200" from="194920158#3" id="5481838621-593915274" to="273019814#1" type="type1" vehsPerHour="360.0" /><flow begin="0" end="7200" from="194926854#0" id="42435644-5481838629" to="226041031#7" type="type1" vehsPerHour="1080.0" /><flow begin="0" end="7200" from="420802028#2" id="3569749143-42431656" to="5670029#4" type="type1" vehsPerHour="360.0" /><flow begin="0" end="7200" from="5671115#1" id="3874681649-593915274" to="273019814#1" type="type1" vehsPerHour="360.0" /><flow begin="0" end="7200" from="384649120#0" id="42430308-62915525" to="46435621#1" type="type1" vehsPerHour="360.0" /><flow begin="0" end="7200" from="384649120#0" id="42430308-5458524665" to="46435596#3" type="type1" vehsPerHour="360.0" /><flow begin="0" end="7200" from="195743342#1" id="42455662-561042200" to="5670106#2" type="type1" vehsPerHour="360.0" /><flow begin="0" end="7200" from="194926854#0" id="42435644-42440966" to="499172074#15" type="type1" vehsPerHour="1080.0" /><flow begin="0" end="7200" from="195743211#0" id="42430736-62915525" to="46435621#1" type="type1" vehsPerHour="360.0" /><flow begin="0" end="7200" from="194926854#0" id="42435644-4872429939" to="46443656#11" type="type1" vehsPerHour="1080.0" /><flow begin="0" end="7200" from="265356028#2" id="42431563-593915202" to="36806679#2" type="type1" vehsPerHour="360.0" /><flow begin="0" end="7200" from="5671115#1" id="3874681649-42435644" to="-420509471#0" type="type1" vehsPerHour="360.0" /><flow begin="0" end="7200" from="420802028#2" id="3569749143-42447230" to="46240204#8" type="type1" vehsPerHour="360.0" /><flow begin="0" end="7200" from="5673561#0" id="42430308-42453545" to="46482539#1" type="type1" vehsPerHour="360.0" /><flow begin="0" end="7200" from="5671115#1" id="3874681649-42440966" to="499172074#15" type="type1" vehsPerHour="360.0" /><flow begin="0" end="7200" from="265356028#2" id="42431563-62915525" to="46435621#1" type="type1" vehsPerHour="360.0" /><flow begin="0" end="7200" from="46443649" id="42440472-42447230" to="46240204#8" type="type1" vehsPerHour="360.0" /><flow begin="0" end="7200" from="194920158#3" id="5481838621-593915202" to="36806679#2" type="type1" vehsPerHour="360.0" /><flow begin="0" end="7200" from="194926854#0" id="42435644-4599130022" to="46482592#1" type="type1" vehsPerHour="1080.0" /><flow begin="0" end="7200" from="420802028#2" id="3569749143-42443950" to="438385431#4" type="type1" vehsPerHour="360.0" /><flow begin="0" end="7200" from="420802028#2" id="3569749143-561042200" to="5670106#2" type="type1" vehsPerHour="360.0" /><flow begin="0" end="7200" from="5671115#1" id="3874681649-593915202" to="36806679#2" type="type1" vehsPerHour="360.0" /><flow begin="0" end="7200" from="198595461#0" id="42436527-42453087" to="46521736" type="type1" vehsPerHour="360.0" /><flow begin="0" end="7200" from="46435602#4" id="5458524666-593915274" to="273019814#1" type="type1" vehsPerHour="360.0" /><flow begin="0" end="7200" from="195743342#1" id="42455662-42455963" to="226041009" type="type1" vehsPerHour="360.0" /><flow begin="0" end="7200" from="46522160#2" id="42429980-42453087" to="46521736" type="type1" vehsPerHour="360.0" /><flow begin="0" end="7200" from="5671115#1" id="3874681649-4207913306" to="194926856" type="type1" vehsPerHour="360.0" /><flow begin="0" end="7200" from="5672629" id="42424098-42453087" to="46521736" type="type1" vehsPerHour="360.0" /><flow begin="0" end="7200" from="194926854#0" id="42435644-561042200" to="5670106#2" type="type1" vehsPerHour="1080.0" /><flow begin="0" end="7200" from="195743211#0" id="42430736-5458524665" to="46435596#3" type="type1" vehsPerHour="360.0" /><flow begin="0" end="7200" from="195743211#0" id="42430736-4599130022" to="46482592#1" type="type1" vehsPerHour="360.0" /><flow begin="0" end="7200" from="496986803#0" id="42446668-5481838629" to="226041031#7" type="type1" vehsPerHour="360.0" /><flow begin="0" end="7200" from="384649120#0" id="42430308-42446977" to="496990647#0" type="type1" vehsPerHour="360.0" /><flow begin="0" end="7200" from="5671192#1" id="3569749123-42449982" to="375165666#1" type="type1" vehsPerHour="360.0" /><flow begin="0" end="7200" from="194926854#0" id="42435644-62915525" to="46435621#1" type="type1" vehsPerHour="1080.0" /><flow begin="0" end="7200" from="5671115#1" id="3874681649-4207815982" to="196117092" type="type1" vehsPerHour="360.0" /><flow begin="0" end="7200" from="194926854#0" id="42435644-5458524665" to="46435596#3" type="type1" vehsPerHour="1080.0" /><flow begin="0" end="7200" from="5671192#1" id="3569749123-42424089" to="455678353" type="type1" vehsPerHour="360.0" /><flow begin="0" end="7200" from="265356028#2" id="42431563-5458524665" to="46435596#3" type="type1" vehsPerHour="360.0" /><flow begin="0" end="7200" from="496986803#0" id="42446668-4872429939" to="46443656#11" type="type1" vehsPerHour="360.0" /><flow begin="0" end="7200" from="5671192#1" id="3569749123-42443618" to="466953403#1" type="type1" vehsPerHour="360.0" /><flow begin="0" end="7200" from="46435602#4" id="5458524666-593915202" to="36806679#2" type="type1" vehsPerHour="360.0" /><flow begin="0" end="7200" from="198595461#0" id="42436527-42446977" to="496990647#0" type="type1" vehsPerHour="360.0" /><flow begin="0" end="7200" from="265356028#2" id="42431563-4599130022" to="46482592#1" type="type1" vehsPerHour="360.0" /><flow begin="0" end="7200" from="5671192#1" id="3569749123-42443950" to="438385431#4" type="type1" vehsPerHour="360.0" /><flow begin="0" end="7200" from="5671192#1" id="3569749123-42442961" to="375165500" type="type1" vehsPerHour="360.0" /><flow begin="0" end="7200" from="5671192#1" id="3569749123-561042200" to="5670106#2" type="type1" vehsPerHour="360.0" /><flow begin="0" end="7200" from="195743211#0" id="42430736-4872429939" to="46443656#11" type="type1" vehsPerHour="360.0" /><flow begin="0" end="7200" from="46522160#2" id="42429980-42446977" to="496990647#0" type="type1" vehsPerHour="360.0" /><flow begin="0" end="7200" from="5672629" id="42424098-42446977" to="496990647#0" type="type1" vehsPerHour="360.0" /><flow begin="0" end="7200" from="194926854#0" id="42435644-42453545" to="46482539#1" type="type1" vehsPerHour="1080.0" /><flow begin="0" end="7200" from="5673063#4" id="4917049626-561042200" to="5670106#2" type="type1" vehsPerHour="360.0" /><flow begin="0" end="7200" from="496986803#0" id="42446668-4599130022" to="46482592#1" type="type1" vehsPerHour="360.0" /><flow begin="0" end="7200" from="5671192#1" id="3569749123-42455963" to="379843702#4" type="type1" vehsPerHour="360.0" /><flow begin="0" end="7200" from="265356028#2" id="42431563-4872429939" to="46443656#11" type="type1" vehsPerHour="360.0" /><flow begin="0" end="7200" from="198595461#0" id="42436527-42455963" to="226041009" type="type1" vehsPerHour="360.0" /><flow begin="0" end="7200" from="420802028#2" id="3569749143-42449982" to="375165666#1" type="type1" vehsPerHour="360.0" /><flow begin="0" end="7200" from="46522160#2" id="42429980-42455963" to="226041009" type="type1" vehsPerHour="360.0" /><flow begin="0" end="7200" from="420802028#2" id="3569749143-42424089" to="455678353" type="type1" vehsPerHour="360.0" /><flow begin="0" end="7200" from="5672629" id="42424098-42455963" to="226041009" type="type1" vehsPerHour="360.0" /><flow begin="0" end="7200" from="46443649" id="42440472-42449982" to="375165666#1" type="type1" vehsPerHour="360.0" /><flow begin="0" end="7200" from="420802028#2" id="3569749143-42443618" to="466953403#1" type="type1" vehsPerHour="360.0" /><flow begin="0" end="7200" from="195743211#0" id="42430736-42440966" to="499172074#15" type="type1" vehsPerHour="360.0" /><flow begin="0" end="7200" from="458166897#8" id="42449948-42449982" to="375165666#1" type="type1" vehsPerHour="360.0" /><flow begin="0" end="7200" from="195743211#0" id="42430736-5481838629" to="226041031#7" type="type1" vehsPerHour="360.0" /><flow begin="0" end="7200" from="46443649" id="42440472-42443618" to="466953403#1" type="type1" vehsPerHour="360.0" /><flow begin="0" end="7200" from="420802028#2" id="3569749143-42442961" to="375165500" type="type1" vehsPerHour="360.0" /><flow begin="0" end="7200" from="5671192#1" id="3569749123-42453087" to="46521736" type="type1" vehsPerHour