<?xml version='1.0' encoding='utf-8'?>
<net xmlns:xsi="http://www.w3.org/2001/XMLSchema-instance" version="0.27" xsi:noNamespaceSchemaLocation="http://sumo.dlr.de/xsd/net_file.xsd">

    <location convBoundary="705.69,4244.24,3936.67,6248.24" netOffset="-583560.94,-4507296.15" origBoundary="-74.010196,40.712299,-73.939616,40.814522" projParameter="+proj=utm +zone=18 +ellps=WGS84 +datum=WGS84 +units=m +no_defs" />

    <type allow="pedestrian" id="highway.bridleway" numLanes="1" oneway="1" priority="1" speed="2.78" width="2.00" />
    <type allow="bus" id="highway.bus_guideway" numLanes="1" oneway="1" priority="1" speed="8.33" />
    <type allow="bicycle" id="highway.cycleway" numLanes="1" oneway="0" priority="1" speed="5.56" width="1.00" />
    <type allow="pedestrian" id="highway.footway" numLanes="1" oneway="1" priority="1" speed="2.78" width="2.00" />
    <type allow="army" id="highway.ford" numLanes="1" oneway="0" priority="1" speed="2.78" />
    <type disallow="tram rail_urban rail rail_electric ship" id="highway.living_street" numLanes="1" oneway="0" priority="3" speed="2.78" />
    <type allow="private emergency authority army vip passenger hov taxi bus coach delivery truck trailer motorcycle evehicle custom1 custom2" id="highway.motorway" numLanes="2" oneway="1" priority="13" speed="44.44" />
    <type allow="private emergency authority army vip passenger hov taxi bus coach delivery truck trailer motorcycle evehicle custom1 custom2" id="highway.motorway_link" numLanes="1" oneway="1" priority="12" speed="22.22" />
    <type allow="bicycle pedestrian" id="highway.path" numLanes="1" oneway="1" priority="1" speed="2.78" width="2.00" />
    <type allow="pedestrian" id="highway.pedestrian" numLanes="1" oneway="1" priority="1" speed="2.78" width="2.00" />
    <type disallow="tram rail_urban rail rail_electric ship" id="highway.primary" numLanes="2" oneway="0" priority="9" speed="27.78" />
    <type disallow="tram rail_urban rail rail_electric ship" id="highway.primary_link" numLanes="1" oneway="0" priority="8" speed="22.22" />
    <type allow="vip" id="highway.raceway" numLanes="2" oneway="0" priority="14" speed="83.33" />
    <type disallow="tram rail_urban rail rail_electric ship" id="highway.residential" numLanes="1" oneway="0" priority="4" speed="13.89" />
    <type disallow="tram rail_urban rail rail_electric ship" id="highway.secondary" numLanes="2" oneway="0" priority="7" speed="27.78" />
    <type disallow="tram rail_urban rail rail_electric ship" id="highway.secondary_link" numLanes="1" oneway="0" priority="6" speed="22.22" />
    <type allow="delivery bicycle pedestrian" id="highway.service" numLanes="1" oneway="0" priority="2" speed="5.56" />
    <type disallow="tram rail_urban rail rail_electric ship" id="highway.services" numLanes="1" oneway="0" priority="1" speed="8.33" />
    <type allow="pedestrian" id="highway.stairs" numLanes="1" oneway="1" priority="1" speed="1.39" width="2.00" />
    <type allow="pedestrian" id="highway.step" numLanes="1" oneway="1" priority="1" speed="1.39" width="2.00" />
    <type allow="pedestrian" id="highway.steps" numLanes="1" oneway="1" priority="1" speed="1.39" width="2.00" />
    <type disallow="tram rail_urban rail rail_electric ship" id="highway.tertiary" numLanes="1" oneway="0" priority="6" speed="22.22" />
    <type disallow="tram rail_urban rail rail_electric ship" id="highway.tertiary_link" numLanes="1" oneway="0" priority="5" speed="22.22" />
    <type disallow="tram rail_urban rail rail_electric ship" id="highway.track" numLanes="1" oneway="0" priority="1" speed="5.56" />
    <type disallow="tram rail_urban rail rail_electric bicycle pedestrian ship" id="highway.trunk" numLanes="2" oneway="0" priority="11" speed="27.78" />
    <type disallow="tram rail_urban rail rail_electric bicycle pedestrian ship" id="highway.trunk_link" numLanes="1" oneway="0" priority="10" speed="22.22" />
    <type disallow="tram rail_urban rail rail_electric ship" id="highway.unclassified" numLanes="1" oneway="0" priority="5" speed="13.89" />
    <type disallow="tram rail_urban rail rail_electric ship" id="highway.unsurfaced" numLanes="1" oneway="0" priority="1" speed="8.33" />
    <type allow="rail_urban" id="railway.light_rail" numLanes="1" oneway="1" priority="15" speed="27.78" />
    <type allow="rail" id="railway.preserved" numLanes="1" oneway="1" priority="15" speed="27.78" />
    <type allow="rail rail_electric" id="railway.rail" numLanes="1" oneway="1" priority="15" speed="83.33" />
    <type allow="rail_urban" id="railway.subway" numLanes="1" oneway="1" priority="15" speed="27.78" />
    <type allow="tram" id="railway.tram" numLanes="1" oneway="1" priority="15" speed="13.89" />

    <edge function="internal" id=":100522728_0">
        <lane disallow="tram rail_urban rail rail_electric ship" id=":100522728_0_0" index="0" length="5.02" shape="2947.21,4795.43 2946.10,4796.26 2945.53,4797.24 2945.47,4798.38 2945.94,4799.66" speed="20.84" />
    </edge>
    <edge function="internal" id=":100522728_1">
        <lane disallow="tram rail_urban rail rail_electric ship" id=":100522728_1_0" index="0" length="12.84" shape="2947.21,4795.43 2935.91,4801.52" speed="13.89" />
    </edge>
    <edge function="internal" id=":100522728_2">
        <lane disallow="tram rail_urban rail rail_electric ship" id=":100522728_2_0" index="0" length="6.21" shape="2943.00,4794.19 2945.94,4799.66" speed="27.78" />
        <lane disallow="tram rail_urban rail rail_electric ship" id=":100522728_2_1" index="1" length="6.21" shape="2940.09,4795.76 2943.03,4801.22" speed="27.78" />
        <lane disallow="tram rail_urban rail rail_electric ship" id=":100522728_2_2" index="2" length="6.21" shape="2937.19,4797.32 2940.13,4802.79" speed="27.78" />
    </edge>
    <edge function="internal" id=":100522728_5">
        <lane disallow="tram rail_urban rail rail_electric ship" id=":100522728_5_0" index="0" length="5.02" shape="2937.19,4797.32 2937.66,4798.61 2937.61,4799.75 2937.02,4800.71 2935.91,4801.52" speed="20.84" />
    </edge>
    <edge function="internal" id=":100522741_0">
        <lane disallow="tram rail_urban rail rail_electric ship" id=":100522741_0_0" index="0" length="12.78" shape="2897.35,4729.69 2908.61,4723.69" speed="27.78" />
        <lane disallow="tram rail_urban rail rail_electric ship" id=":100522741_0_1" index="1" length="12.78" shape="2898.89,4732.61 2910.18,4726.59" speed="27.78" />
    </edge>
    <edge function="internal" id=":100522741_2">
        <lane disallow="tram rail_urban rail rail_electric ship" id=":100522741_2_0" index="0" length="10.87" shape="2898.89,4732.61 2902.73,4730.80 2905.68,4729.89 2907.74,4729.89 2908.91,4730.79" speed="27.78" />
    </edge>
    <edge function="internal" id=":100522741_3">
        <lane disallow="tram rail_urban rail rail_electric ship" id=":100522741_3_0" index="0" length="7.85" shape="2898.89,4732.61 2901.46,4731.47 2903.50,4731.05 2905.01,4731.35 2906.01,4732.35" speed="27.78" />
    </edge>
    <edge function="internal" id=":100522741_4">
        <lane disallow="tram rail_urban rail rail_electric ship" id=":100522741_4_0" index="0" length="5.02" shape="2898.89,4732.61 2900.18,4732.15 2901.31,4732.21 2902.28,4732.80 2903.10,4733.91" speed="27.78" />
    </edge>
    <edge function="internal" id=":1289222404_0">
        <lane disallow="tram rail_urban rail rail_electric ship" id=":1289222404_0_0" index="0" length="0.10" shape="2260.19,4521.52 2260.19,4521.52" speed="13.89" />
    </edge>
    <edge function="internal" id=":1289222416_0">
        <lane disallow="tram rail_urban rail rail_electric ship" id=":1289222416_0_0" index="0" length="0.29" shape="2147.74,4582.13 2148.00,4581.99" speed="13.89" />
    </edge>
    <edge function="internal" id=":1289222420_0">
        <lane disallow="tram rail_urban rail rail_electric ship" id=":1289222420_0_0" index="0" length="0.10" shape="2340.29,4669.05 2340.29,4669.05" speed="11.18" />
        <lane disallow="tram rail_urban rail rail_electric ship" id=":1289222420_0_1" index="1" length="0.10" shape="2338.72,4666.14 2338.72,4666.14" speed="11.18" />
    </edge>
    <edge function="internal" id=":1289222420_2">
        <lane disallow="tram rail_urban rail rail_electric ship" id=":1289222420_2_0" index="0" length="0.10" shape="2335.59,4660.33 2335.59,4660.33" speed="11.18" />
        <lane disallow="tram rail_urban rail rail_electric ship" id=":1289222420_2_1" index="1" length="0.10" shape="2337.16,4663.24 2337.16,4663.24" speed="11.18" />
    </edge>
    <edge function="internal" id=":1289222431_0">
        <lane disallow="tram rail_urban rail rail_electric ship" id=":1289222431_0_0" index="0" length="0.10" shape="2226.91,4730.16 2226.91,4730.16" speed="11.18" />
        <lane disallow="tram rail_urban rail rail_electric ship" id=":1289222431_0_1" index="1" length="0.10" shape="2225.34,4727.25 2225.34,4727.25" speed="11.18" />
    </edge>
    <edge function="internal" id=":1289222431_2">
        <lane disallow="tram rail_urban rail rail_electric ship" id=":1289222431_2_0" index="0" length="0.10" shape="2222.21,4721.44 2222.21,4721.44" speed="11.18" />
        <lane disallow="tram rail_urban rail rail_electric ship" id=":1289222431_2_1" index="1" length="0.10" shape="2223.78,4724.35 2223.78,4724.35" speed="11.18" />
    </edge>
    <edge function="internal" id=":1329098617_0">
        <lane disallow="tram rail_urban rail rail_electric ship" id=":1329098617_0_0" index="0" length="0.30" shape="1876.73,4282.33 1876.47,4282.47" speed="13.89" />
    </edge>
    <edge function="internal" id=":1533280147_0">
        <lane disallow="tram rail_urban rail rail_electric ship" id=":1533280147_0_0" index="0" length="3.72" shape="1091.73,4710.11 1091.30,4709.24 1090.81,4708.20 1090.26,4707.41 1089.64,4707.30" speed="20.84" />
    </edge>
    <edge function="internal" id=":1533280147_1">
        <lane disallow="tram rail_urban rail rail_electric ship" id=":1533280147_1_0" index="0" length="7.08" shape="1091.73,4710.11 1090.41,4708.45 1089.22,4707.54 1088.07,4706.60 1086.89,4704.87" speed="19.48" />
        <lane disallow="tram rail_urban rail rail_electric ship" id=":1533280147_1_1" index="1" length="7.08" shape="1094.54,4708.38 1093.26,4706.79 1092.09,4705.92 1090.97,4705.03 1089.83,4703.37" speed="19.48" />
    </edge>
    <edge function="internal" id=":1533280147_3">
        <lane disallow="tram rail_urban rail rail_electric ship" id=":1533280147_3_0" index="0" length="11.69" shape="1099.89,4701.67 1089.64,4707.30" speed="13.89" />
    </edge>
    <edge function="internal" id=":1533280147_4">
        <lane disallow="tram rail_urban rail rail_electric ship" id=":1533280147_4_0" index="0" length="10.97" shape="1099.89,4701.67 1096.05,4703.50 1093.09,4704.40 1091.01,4704.35 1089.83,4703.37" speed="12.54" />
    </edge>
    <edge function="internal" id=":1695371014_0">
        <lane disallow="tram rail_urban rail rail_electric ship" id=":1695371014_0_0" index="0" length="0.25" shape="1440.48,5060.72 1440.43,5060.78 1440.39,5060.81 1440.35,5060.84 1440.29,5060.88" speed="13.89" />
    </edge>
    <edge function="internal" id=":1727780310_0">
        <lane disallow="tram rail_urban rail rail_electric ship" id=":1727780310_0_0" index="0" length="0.10" shape="1301.05,4949.73 1301.05,4949.73" speed="13.89" />
    </edge>
    <edge function="internal" id=":1740700804_0">
        <lane disallow="tram rail_urban rail rail_electric ship" id=":1740700804_0_0" index="0" length="0.29" shape="2613.07,6083.84 2612.82,6083.97" speed="27.78" />
        <lane disallow="tram rail_urban rail rail_electric ship" id=":1740700804_0_1" index="1" length="0.29" shape="2611.50,6080.93 2611.24,6081.07" speed="27.78" />
    </edge>
    <edge function="internal" id=":1740700804_2">
        <lane disallow="tram rail_urban rail rail_electric ship" id=":1740700804_2_0" index="0" length="0.31" shape="2608.10,6075.27 2608.38,6075.12" speed="27.78" />
        <lane disallow="tram rail_urban rail rail_electric ship" id=":1740700804_2_1" index="1" length="0.31" shape="2609.67,6078.17 2609.94,6078.03" speed="27.78" />
    </edge>
    <edge function="internal" id=":1745856010_0">
        <lane disallow="tram rail_urban rail rail_electric ship" id=":1745856010_0_0" index="0" length="0.30" shape="2643.39,5409.02 2643.65,5408.88" speed="11.18" />
    </edge>
    <edge function="internal" id=":1745856081_0">
        <lane disallow="tram rail_urban rail rail_electric ship" id=":1745856081_0_0" index="0" length="0.29" shape="2682.37,5480.68 2682.14,5480.80" speed="27.78" />
        <lane disallow="tram rail_urban rail rail_electric ship" id=":1745856081_0_1" index="1" length="0.29" shape="2680.81,5477.77 2680.53,5477.92" speed="27.78" />
    </edge>
    <edge function="internal" id=":1745991208_0">
        <lane disallow="tram rail_urban rail rail_electric ship" id=":1745991208_0_0" index="0" length="0.30" shape="3036.14,4836.69 3036.40,4836.55" speed="13.89" />
    </edge>
    <edge function="internal" id=":1745991209_0">
        <lane disallow="tram rail_urban rail rail_electric ship" id=":1745991209_0_0" index="0" length="0.30" shape="3074.68,4908.29 3074.43,4908.43" speed="27.78" />
        <lane disallow="tram rail_urban rail rail_electric ship" id=":1745991209_0_1" index="1" length="0.30" shape="3073.10,4905.39 3072.83,4905.54" speed="27.78" />
    </edge>
    <edge function="internal" id=":1745991210_0">
        <lane disallow="tram rail_urban rail rail_electric ship" id=":1745991210_0_0" index="0" length="0.30" shape="2267.56,5250.96 2267.82,5250.82" speed="13.89" />
    </edge>
    <edge function="internal" id=":1745991212_0">
        <lane disallow="tram rail_urban rail rail_electric ship" id=":1745991212_0_0" index="0" length="0.10" shape="2306.16,5322.97 2306.16,5322.97" speed="27.78" />
        <lane disallow="tram rail_urban rail rail_electric ship" id=":1745991212_0_1" index="1" length="0.10" shape="2304.60,5320.07 2304.60,5320.07" speed="27.78" />
    </edge>
    <edge function="internal" id=":1745991214_0">
        <lane disallow="tram rail_urban rail rail_electric ship" id=":1745991214_0_0" index="0" length="0.35" shape="2341.23,5389.67 2341.64,5389.46" speed="27.78" />
        <lane disallow="tram rail_urban rail rail_electric ship" id=":1745991214_0_1" index="1" length="0.35" shape="2342.79,5392.58 2343.10,5392.42" speed="27.78" />
        <lane disallow="tram rail_urban rail rail_electric ship" id=":1745991214_0_2" index="2" length="0.35" shape="2344.34,5395.49 2344.55,5395.38" speed="27.78" />
    </edge>
    <edge function="internal" id=":1752946324_0">
        <lane disallow="tram rail_urban rail rail_electric ship" id=":1752946324_0_0" index="0" length="0.30" shape="2069.11,4815.38 2068.85,4815.53" speed="11.18" />
        <lane disallow="tram rail_urban rail rail_electric ship" id=":1752946324_0_1" index="1" length="0.30" shape="2067.55,4812.48 2067.28,4812.62" speed="11.18" />
    </edge>
    <edge function="internal" id=":1752946324_2">
        <lane disallow="tram rail_urban rail rail_electric ship" id=":1752946324_2_0" index="0" length="0.30" shape="2064.15,4806.81 2064.41,4806.67" speed="11.18" />
        <lane disallow="tram rail_urban rail rail_electric ship" id=":1752946324_2_1" index="1" length="0.30" shape="2065.72,4809.72 2065.98,4809.58" speed="11.18" />
    </edge>
    <edge function="internal" id=":1752946328_0">
        <lane disallow="tram rail_urban rail rail_electric ship" id=":1752946328_0_0" index="0" length="0.30" shape="2108.04,4885.72 2107.78,4885.86" speed="13.89" />
    </edge>
    <edge function="internal" id=":1758380526_0">
        <lane disallow="tram rail_urban rail rail_electric ship" id=":1758380526_0_0" index="0" length="0.10" shape="2076.50,5354.26 2076.50,5354.26" speed="13.89" />
    </edge>
    <edge function="internal" id=":1758380528_0">
        <lane disallow="tram rail_urban rail rail_electric ship" id=":1758380528_0_0" index="0" length="0.10" shape="2115.02,5425.95 2115.02,5425.95" speed="27.78" />
        <lane disallow="tram rail_urban rail rail_electric ship" id=":1758380528_0_1" index="1" length="0.10" shape="2113.46,5423.05 2113.46,5423.05" speed="27.78" />
    </edge>
    <edge function="internal" id=":1762438249_0">
        <lane disallow="tram rail_urban rail rail_electric ship" id=":1762438249_0_0" index="0" length="0.30" shape="2324.76,5129.91 2324.50,5130.05" speed="11.18" />
    </edge>
    <edge function="internal" id=":1762438252_0">
        <lane disallow="tram rail_urban rail rail_electric ship" id=":1762438252_0_0" index="0" length="0.30" shape="2285.52,5058.81 2285.79,5058.67" speed="27.78" />
        <lane disallow="tram rail_urban rail rail_electric ship" id=":1762438252_0_1" index="1" length="0.30" shape="2287.09,5061.71 2287.35,5061.57" speed="27.78" />
    </edge>
    <edge function="internal" id=":1814471103_0">
        <lane disallow="tram rail_urban rail rail_electric ship" id=":1814471103_0_0" index="0" length="3.00" shape="2574.99,5807.25 2577.63,5805.83" speed="13.89" />
    </edge>
    <edge function="internal" id=":1815133244_0">
        <lane disallow="tram rail_urban rail rail_electric ship" id=":1815133244_0_0" index="0" length="5.02" shape="1888.21,5912.92 1887.42,5911.79 1886.45,5911.20 1885.32,5911.14 1884.02,5911.61" speed="27.78" />
    </edge>
    <edge function="internal" id=":1815133244_1">
        <lane disallow="tram rail_urban rail rail_electric ship" id=":1815133244_1_0" index="0" length="9.63" shape="1888.21,5912.92 1883.70,5904.46" speed="27.78" />
        <lane disallow="tram rail_urban rail rail_electric ship" id=":1815133244_1_1" index="1" length="9.63" shape="1891.15,5911.40 1886.58,5902.87" speed="27.78" />
    </edge>
    <edge function="internal" id=":1815133244_3">
        <lane disallow="tram rail_urban rail rail_electric ship" id=":1815133244_3_0" index="0" length="9.63" shape="1892.49,5906.87 1884.02,5911.61" speed="27.78" />
        <lane disallow="tram rail_urban rail rail_electric ship" id=":1815133244_3_1" index="1" length="9.63" shape="1890.81,5904.02 1882.47,5908.70" speed="27.78" />
    </edge>
    <edge function="internal" id=":1815133244_5">
        <lane disallow="tram rail_urban rail rail_electric ship" id=":1815133244_5_0" index="0" length="5.03" shape="1890.81,5904.02 1889.53,5904.55 1888.40,5904.53 1887.42,5903.97 1886.58,5902.87" speed="27.78" />
    </edge>
    <edge function="internal" id=":1828749423_0">
        <lane disallow="tram rail_urban rail rail_electric ship" id=":1828749423_0_0" index="0" length="0.30" shape="2536.65,5738.00 2536.39,5738.14" speed="13.89" />
    </edge>
    <edge function="internal" id=":1828749425_0">
        <lane disallow="tram rail_urban rail rail_electric ship" id=":1828749425_0_0" index="0" length="0.28" shape="2500.79,5665.88 2501.01,5665.76" speed="27.78" />
        <lane disallow="tram rail_urban rail rail_electric ship" id=":1828749425_0_1" index="1" length="0.28" shape="2502.34,5668.79 2502.62,5668.64" speed="27.78" />
    </edge>
    <edge function="internal" id=":1828749426_0">
        <lane disallow="tram rail_urban rail rail_electric ship" id=":1828749426_0_0" index="0" length="0.30" shape="2429.84,5524.26 2430.10,5524.12" speed="11.18" />
    </edge>
    <edge function="internal" id=":1828749427_0">
        <lane disallow="tram rail_urban rail rail_electric ship" id=":1828749427_0_0" index="0" length="0.29" shape="2468.89,5595.29 2468.61,5595.44" speed="27.78" />
        <lane disallow="tram rail_urban rail rail_electric ship" id=":1828749427_0_1" index="1" length="0.29" shape="2467.29,5592.40 2467.05,5592.54" speed="27.78" />
    </edge>
    <edge function="internal" id=":1828749428_0">
        <lane disallow="tram rail_urban rail rail_electric ship" id=":1828749428_0_0" index="0" length="0.30" shape="2392.39,5456.09 2392.13,5456.23" speed="13.89" />
    </edge>
    <edge function="internal" id=":2165157806_0">
        <lane disallow="tram rail_urban rail rail_electric ship" id=":2165157806_0_0" index="0" length="0.30" shape="3565.30,5470.96 3565.56,5470.82" speed="13.89" />
    </edge>
    <edge function="internal" id=":2165157809_0">
        <lane disallow="tram rail_urban rail rail_electric ship" id=":2165157809_0_0" index="0" length="0.30" shape="3600.24,5538.69 3600.50,5538.55" speed="27.78" />
        <lane disallow="tram rail_urban rail rail_electric ship" id=":2165157809_0_1" index="1" length="0.30" shape="3601.81,5541.59 3602.08,5541.45" speed="27.78" />
    </edge>
    <edge function="internal" id=":2176936521_0">
        <lane disallow="tram rail_urban rail rail_electric ship" id=":2176936521_0_0" index="0" length="0.30" shape="2394.44,4914.16 2394.17,4914.30" speed="27.78" />
        <lane disallow="tram rail_urban rail rail_electric ship" id=":2176936521_0_1" index="1" length="0.30" shape="2392.87,4911.26 2392.60,4911.40" speed="27.78" />
    </edge>
    <edge function="internal" id=":2176936535_0">
        <lane disallow="tram rail_urban rail rail_electric ship" id=":2176936535_0_0" index="0" length="0.30" shape="2428.83,4981.34 2429.10,4981.20" speed="27.78" />
        <lane disallow="tram rail_urban rail rail_electric ship" id=":2176936535_0_1" index="1" length="0.30" shape="2430.40,4984.24 2430.66,4984.10" speed="27.78" />
    </edge>
    <edge function="internal" id=":2295332121_0">
        <lane disallow="tram rail_urban rail rail_electric ship" id=":2295332121_0_0" index="0" length="0.30" shape="1177.46,4573.89 1177.19,4574.03" speed="11.18" />
        <lane disallow="tram rail_urban rail rail_electric ship" id=":2295332121_0_1" index="1" length="0.30" shape="1175.89,4570.98 1175.62,4571.13" speed="11.18" />
        <lane disallow="tram rail_urban rail rail_electric ship" id=":2295332121_0_2" index="2" length="0.30" shape="1174.32,4568.08 1174.05,4568.22" speed="11.18" />
    </edge>
    <edge function="internal" id=":2295332121_3">
        <lane disallow="tram rail_urban rail rail_electric ship" id=":2295332121_3_0" index="0" length="0.30" shape="1169.35,4559.51 1169.61,4559.37" speed="11.18" />
        <lane disallow="tram rail_urban rail rail_electric ship" id=":2295332121_3_1" index="1" length="0.30" shape="1170.91,4562.42 1171.18,4562.27" speed="11.18" />
        <lane disallow="tram rail_urban rail rail_electric ship" id=":2295332121_3_2" index="2" length="0.30" shape="1172.48,4565.32 1172.75,4565.18" speed="11.18" />
    </edge>
    <edge function="internal" id=":2348991701_0">
        <lane disallow="tram rail_urban rail rail_electric ship" id=":2348991701_0_0" index="0" length="3.55" shape="2070.77,5899.87 2071.48,5899.19 2071.70,5898.43 2071.92,5897.67 2072.63,5897.00" speed="27.78" />
        <lane disallow="tram rail_urban rail rail_electric ship" id=":2348991701_0_1" index="1" length="3.55" shape="2072.32,5902.78 2073.04,5902.10 2073.26,5901.34 2073.48,5900.58 2074.19,5899.90" speed="27.78" />
    </edge>
    <edge function="internal" id=":2351527463_0">
        <lane disallow="tram rail_urban rail rail_electric ship" id=":2351527463_0_0" index="0" length="0.23" shape="1362.95,4916.97 1362.75,4917.08" speed="13.89" />
    </edge>
    <edge function="internal" id=":2351527464_0">
        <lane disallow="tram rail_urban rail rail_electric ship" id=":2351527464_0_0" index="0" length="0.29" shape="1250.67,4707.07 1250.95,4706.92" speed="27.78" />
        <lane disallow="tram rail_urban rail rail_electric ship" id=":2351527464_0_1" index="1" length="0.29" shape="1252.28,4709.95 1252.51,4709.83" speed="27.78" />
    </edge>
    <edge function="internal" id=":2351527466_0">
        <lane disallow="tram rail_urban rail rail_electric ship" id=":2351527466_0_0" index="0" length="0.10" shape="1326.55,4847.48 1326.55,4847.48" speed="13.89" />
    </edge>
    <edge function="internal" id=":2351527467_0">
        <lane disallow="tram rail_urban rail rail_electric ship" id=":2351527467_0_0" index="0" length="0.30" shape="1289.66,4778.79 1289.53,4778.87 1289.44,4778.92 1289.35,4778.96 1289.21,4779.01" speed="27.78" />
        <lane disallow="tram rail_urban rail rail_electric ship" id=":2351527467_0_1" index="1" length="0.30" shape="1288.09,4775.89 1288.11,4775.91" speed="27.78" />
    </edge>
    <edge function="internal" id=":2351532356_0">
        <lane disallow="tram rail_urban rail rail_electric ship" id=":2351532356_0_0" index="0" length="0.25" shape="1593.91,5345.74 1593.64,5345.88" speed="27.78" />
        <lane disallow="tram rail_urban rail rail_electric ship" id=":2351532356_0_1" index="1" length="0.25" shape="1592.34,5342.84 1592.16,5342.93" speed="27.78" />
    </edge>
    <edge function="internal" id=":2351532361_0">
        <lane disallow="tram rail_urban rail rail_electric ship" id=":2351532361_0_0" index="0" length="0.30" shape="1705.66,5553.97 1705.92,5553.83" speed="13.89" />
    </edge>
    <edge function="internal" id=":2351532363_0">
        <lane disallow="tram rail_urban rail rail_electric ship" id=":2351532363_0_0" index="0" length="0.24" shape="1896.61,5904.45 1896.44,5904.54" speed="27.78" />
        <lane disallow="tram rail_urban rail rail_electric ship" id=":2351532363_0_1" index="1" length="0.24" shape="1895.03,5901.55 1894.77,5901.70" speed="27.78" />
    </edge>
    <edge function="internal" id=":2351532367_0">
        <lane disallow="tram rail_urban rail rail_electric ship" id=":2351532367_0_0" index="0" length="0.30" shape="1820.73,5766.76 1820.46,5766.91" speed="13.89" />
        <lane disallow="tram rail_urban rail rail_electric ship" id=":2351532367_0_1" index="1" length="0.30" shape="1819.16,5763.86 1818.90,5764.00" speed="13.89" />
        <lane disallow="tram rail_urban rail rail_electric ship" id=":2351532367_0_2" index="2" length="0.30" shape="1817.60,5760.95 1817.34,5761.09" speed="13.89" />
    </edge>
    <edge function="internal" id=":2351532369_0">
        <lane disallow="tram rail_urban rail rail_electric ship" id=":2351532369_0_0" index="0" length="0.30" shape="1779.61,5691.69 1779.88,5691.54" speed="27.78" />
        <lane disallow="tram rail_urban rail rail_electric ship" id=":2351532369_0_1" index="1" length="0.30" shape="1781.18,5694.59 1781.44,5694.45" speed="27.78" />
        <lane disallow="tram rail_urban rail rail_electric ship" id=":2351532369_0_2" index="2" length="0.30" shape="1782.74,5697.50 1783.01,5697.35" speed="27.78" />
    </edge>
    <edge function="internal" id=":2351532371_0">
        <lane disallow="tram rail_urban rail rail_electric ship" id=":2351532371_0_0" index="0" length="0.25" shape="1668.22,5483.52 1668.00,5483.64" speed="11.18" />
    </edge>
    <edge function="internal" id=":2351532373_0">
        <lane disallow="tram rail_urban rail rail_electric ship" id=":2351532373_0_0" index="0" length="0.30" shape="1745.61,5625.01 1745.34,5625.15" speed="27.78" />
        <lane disallow="tram rail_urban rail rail_electric ship" id=":2351532373_0_1" index="1" length="0.30" shape="1744.04,5622.11 1743.78,5622.25" speed="27.78" />
    </edge>
    <edge function="internal" id=":2351532375_0">
        <lane disallow="tram rail_urban rail rail_electric ship" id=":2351532375_0_0" index="0" length="0.10" shape="1631.03,5413.12 1630.95,5413.16" speed="27.78" />
        <lane disallow="tram rail_urban rail rail_electric ship" id=":2351532375_0_1" index="1" length="0.10" shape="1632.45,5416.10 1632.53,5416.06" speed="27.78" />
    </edge>
    <edge function="internal" id=":2351532377_0">
        <lane disallow="tram rail_urban rail rail_electric ship" id=":2351532377_0_0" index="0" length="0.27" shape="1970.98,6042.35 1970.74,6042.47" speed="13.89" />
    </edge>
    <edge function="internal" id=":2351532382_0">
        <lane disallow="tram rail_urban rail rail_electric ship" id=":2351532382_0_0" index="0" length="0.32" shape="1480.29,5132.84 1479.99,5133.00" speed="11.18" />
        <lane disallow="tram rail_urban rail rail_electric ship" id=":2351532382_0_1" index="1" length="0.32" shape="1478.72,5129.93 1478.45,5130.08" speed="11.18" />
    </edge>
    <edge function="internal" id=":2351532382_2">
        <lane disallow="tram rail_urban rail rail_electric ship" id=":2351532382_2_0" index="0" length="0.27" shape="1475.37,5124.24 1475.59,5124.12" speed="11.18" />
        <lane disallow="tram rail_urban rail rail_electric ship" id=":2351532382_2_1" index="1" length="0.27" shape="1476.91,5127.16 1477.16,5127.03" speed="11.18" />
    </edge>
    <edge function="internal" id=":2351532384_0">
        <lane disallow="tram rail_urban rail rail_electric ship" id=":2351532384_0_0" index="0" length="0.30" shape="2008.45,6113.51 2008.71,6113.37" speed="13.89" />
    </edge>
    <edge function="internal" id=":2351532386_0">
        <lane disallow="tram rail_urban rail rail_electric ship" id=":2351532386_0_0" index="0" length="0.30" shape="1517.63,5204.13 1517.37,5204.27" speed="13.89" />
    </edge>
    <edge function="internal" id=":2351532388_0">
        <lane disallow="tram rail_urban rail rail_electric ship" id=":2351532388_0_0" index="0" length="0.10" shape="1400.21,4984.72 1400.21,4984.72" speed="13.89" />
    </edge>
    <edge function="internal" id=":2351532390_0">
        <lane disallow="tram rail_urban rail rail_electric ship" id=":2351532390_0_0" index="0" length="0.28" shape="1554.64,5274.17 1554.88,5274.03" speed="13.89" />
    </edge>
    <edge function="internal" id=":2435108438_0">
        <lane disallow="tram rail_urban rail rail_electric ship" id=":2435108438_0_0" index="0" length="0.29" shape="2220.57,5378.19 2220.46,5377.99" speed="27.78" />
        <lane disallow="tram rail_urban rail rail_electric ship" id=":2435108438_0_1" index="1" length="0.29" shape="2223.48,5376.64 2223.35,5376.40" speed="27.78" />
        <lane disallow="tram rail_urban rail rail_electric ship" id=":2435108438_0_2" index="2" length="0.29" shape="2226.40,5375.09 2226.25,5374.82" speed="27.78" />